4
Lattice="4.455706290073046 -0.14723126832814387 7.109018003979404e-13 1.7794071712273372 4.087628372143773 2.3693529545829993e-12 -3.1175567306506333 -1.9701985519090737 2.5048259993461315" Properties=species:S:1:pos:R:3:tags:I:1 spacegroup="P 1" unit_cell=conventional n_minim_iter=1 energy=-1943.1232900027376 free_energy=-1943.1232900027376 pbc="T T T"
Ti       0.00000000       0.00000000       0.00000000        0
Al       3.11755673       1.97019855       0.00000000        1
Al       2.22785315      -0.07361563       1.25241300        2
Al       0.88970359       2.04381419       1.25241300        3
4
Lattice="4.4398162625234 -0.16694822147530936 6.978743916865566e-13 1.7547786343166578 4.081738857174333 2.3620041144202644e-12 -3.0972974484204716 -1.9573953178507748 2.5130046238089037" Properties=species:S:1:pos:R:3:tags:I:1 spacegroup="P 1" unit_cell=conventional n_minim_iter=2 stress="4.939305672866766 0.0334586581420423 2.443714109389387e-14 0.0334586581420423 4.907506971170782 2.101797518139423e-14 2.443714109389387e-14 2.101797518139423e-14 4.88636214350104" pbc="T T T"
Ti       0.00000000       0.00000000       0.00000000        0
Al       3.09729745       1.95739532       0.00000000        1
Al       2.21990813      -0.08347411       1.25650231        2
Al       0.87738932       2.04086943       1.25650231        3
4
Lattice="4.438883324297303 -0.16810961316257314 6.97104627660827e-13 1.7533292373598959 4.081394687380942 2.3615228351546993e-12 -3.0961062808290443 -1.9566425371104472 2.513487992520218" Properties=species:S:1:pos:R:3:tags:I:1 spacegroup="P 1" unit_cell=conventional n_minim_iter=3 stress="4.894139565213385 -0.0006250542215669508 -1.6254578113721585e-14 -0.0006250542215669508 4.894733609142203 2.3363312507571535e-14 -1.6254578113721585e-14 2.3363312507571535e-14 4.895128623901702" pbc="T T T"
Ti       0.00000000       0.00000000       0.00000000        0
Al       3.09610628       1.95664254       0.00000000        1
Al       2.21944166      -0.08405481       1.25674400        2
Al       0.87666462       2.04069734       1.25674400        3
