4
Lattice="1.9877546294505906 -3.4428920111886696 -1.7828012648769533e-17 1.9877546294505906 3.4428920111886696 1.7828012648769533e-17 0.0 -3.394743745955523e-17 6.555826694339732" Properties=species:S:1:pos:R:3 cutoff=-1.0 nneightol=1.2 n_minim_iter=1 energy=-652.4731998672921 free_energy=-652.4731998672921 pbc="T T T"
Si       1.98775463       1.14763067       0.41132643
Si       1.98775463      -1.14763067       3.68923977
Si       1.98775463       1.14763067       2.86658692
Si       1.98775463      -1.14763067      -0.41132643
4
Lattice="1.9870179575840343 -3.4416160580872877 -1.7861202437265736e-17 1.9870179575840343 3.4416160580872877 1.7861202437265736e-17 1.360285502475878e-35 -3.389683378675012e-17 6.560688641679769" Properties=species:S:1:pos:R:3 cutoff=-1.0 nneightol=1.2 n_minim_iter=2 stress="0.041400124820084754 -1.0028428871978801e-17 3.0953649453533296e-17 -1.0028428871978801e-17 0.041400124820084844 -5.197420118576348e-19 3.0953649453533296e-17 -5.197420118576348e-19 0.041561943566638594" pbc="T T T"
Si       1.98701796       1.14720535       0.41177935
Si       1.98701796      -1.14720535       3.69212368
Si       1.98701796       1.14720535       2.86856497
Si       1.98701796      -1.14720535      -0.41177935
4
Lattice="1.9869694993552862 -3.4415321259730516 -1.7868137072738488e-17 1.9869694993552862 3.4415321259730516 1.7868137072738488e-17 3.5306576750865744e-34 -3.388446492858469e-17 6.561008649840694" Properties=species:S:1:pos:R:3 cutoff=-1.0 nneightol=1.2 n_minim_iter=3 stress="0.041462151385030045 -7.542067292097542e-18 6.304791273656677e-18 -7.542067292097542e-18 0.0414621513850302 -3.682108542588524e-17 6.304791273656677e-18 -3.682108542588524e-17 0.041384533906330984" pbc="T T T"
Si       1.98696950       1.14717738       0.41254216
Si       1.98696950      -1.14717738       3.69304649
Si       1.98696950       1.14717738       2.86796216
Si       1.98696950      -1.14717738      -0.41254216
