4
Lattice="2.0688345090487648 -3.5833264821242747 -2.2007057973978782e-17 2.068834509048764 3.5833264821242747 2.2007057973978788e-17 -1.3431166453866698e-32 -4.2237134253168286e-17 6.877313718052284" Properties=species:S:1:pos:R:3 cutoff=-1.0 nneightol=1.2 n_minim_iter=1 energy=-651.7475586345894 free_energy=-651.7475586345894 pbc="T T T"
Si       2.06883451       1.19444216       0.43782412
Si       2.06883451      -1.19444216       3.87648097
Si       2.06883451       1.19444216       3.00083274
Si       2.06883451      -1.19444216      -0.43782412
4
Lattice="2.067690298453359 -3.581344651238474 -2.2046241584342958e-17 2.0676902984533583 3.581344651238474 2.2046241584342955e-17 -1.2498956645261974e-32 -4.218546467206078e-17 6.884927307490712" Properties=species:S:1:pos:R:3 cutoff=-1.0 nneightol=1.2 n_minim_iter=2 stress="0.07233975141239155 -1.0799939618812146e-16 1.5185823206960682e-17 -1.0799939618812146e-16 0.0723397514123919 -2.7814076705598543e-18 1.5185823206960682e-17 -2.7814076705598543e-18 0.07279103929567265" pbc="T T T"
Si       2.06769030       1.19378155       0.43903293
Si       2.06769030      -1.19378155       3.88149658
Si       2.06769030       1.19378155       3.00343072
Si       2.06769030      -1.19378155      -0.43903293
4
Lattice="2.067984656463377 -3.581854494267438 -2.171077120512853e-17 2.067984656463376 3.581854494267438 2.1710771205128518e-17 -1.4468534870649697e-32 -4.282342990975551e-17 6.882967438727685" Properties=species:S:1:pos:R:3 cutoff=-1.0 nneightol=1.2 n_minim_iter=3 stress="0.07246311613533386 -1.1923400172628644e-16 1.1530252545601566e-17 -1.1923400172628644e-16 0.07246311613533363 -5.011605060183455e-17 1.1530252545601566e-17 -5.011605060183455e-17 0.07246200701007693" pbc="T T T"
Si       2.06798466       1.19395150       0.43990366
Si       2.06798466      -1.19395150       3.88138738
Si       2.06798466       1.19395150       3.00158006
Si       2.06798466      -1.19395150      -0.43990366
