4
Lattice="1.895220311407973 -3.2826178708951192 -1.7080091172189103e-17 1.8952203114079733 3.2826178708951192 1.7080091172189103e-17 -2.9200492391612143e-33 -3.240666818907283e-17 6.228228354356297" Properties=species:S:1:pos:R:3 cutoff=-1.0 nneightol=1.2 n_minim_iter=1 energy=-652.5984432752471 free_energy=-652.5984432752471 pbc="T T T"
Si       1.89522031       1.09420596       0.38856496
Si       1.89522031      -1.09420596       3.50267913
Si       1.89522031       1.09420596       2.72554922
Si       1.89522031      -1.09420596      -0.38856496
4
Lattice="1.8955741928385106 -3.2832308115126643 -1.7135925748262875e-17 1.8955741928385108 3.2832308115126643 1.713592574826287e-17 -3.0143980098298736e-33 -3.229469409588746e-17 6.225903097310119" Properties=species:S:1:pos:R:3 cutoff=-1.0 nneightol=1.2 n_minim_iter=2 stress="-0.02837430601061672 4.614268159079266e-17 -1.3308958921717414e-16 4.614268159079266e-17 -0.028374306010616548 -6.255856274536434e-17 -1.3308958921717414e-16 -6.255856274536434e-17 -0.028689478715955702" pbc="T T T"
Si       1.89557419       1.09441027       0.38864346
Si       1.89557419      -1.09441027       3.50159501
Si       1.89557419       1.09441027       2.72430809
Si       1.89557419      -1.09441027      -0.38864346
4
Lattice="1.8951561681351434 -3.2825067714876135 -1.709399849254884e-17 1.8951561681351436 3.2825067714876135 1.709399849254882e-17 -2.548775698786931e-33 -3.238141505123117e-17 6.228649961523029" Properties=species:S:1:pos:R:3 cutoff=-1.0 nneightol=1.2 n_minim_iter=3 stress="-0.028450482929666145 -6.091408539223908e-17 -1.6947349150863227e-16 -6.091408539223908e-17 -0.028450482929665618 -2.1558125152016462e-17 -1.6947349150863227e-16 -2.1558125152016462e-17 -0.02845331140857138" pbc="T T T"
Si       1.89515617       1.09416892       0.38951673
Si       1.89515617      -1.09416892       3.50384171
Si       1.89515617       1.09416892       2.72480826
Si       1.89515617      -1.09416892      -0.38951673
