4
Lattice="1.9737076070375263 -3.418561854674184 -1.7781867007361088e-17 1.9737076070375263 3.418561854674184 1.7781867007361088e-17 0.0 -3.38015858348255e-17 6.498350927638518" Properties=species:S:1:pos:R:3 cutoff=-1.0 nneightol=1.2 n_minim_iter=1 energy=-652.5488884496579 free_energy=-652.5488884496579 pbc="T T T"
Si       1.97370761       1.13952062       0.40636468
Si       1.97370761      -1.13952062       3.65554015
Si       1.97370761       1.13952062       2.84281078
Si       1.97370761      -1.13952062      -0.40636468
4
Lattice="1.9726469073531767 -3.4167246689293176 -1.7757021998603473e-17 1.9726469073531767 3.4167246689293176 1.7757021998603476e-17 -8.466435643831148e-36 -3.386700854141846e-17 6.505341182097129" Properties=species:S:1:pos:R:3 cutoff=-1.0 nneightol=1.2 n_minim_iter=2 stress="0.032576739764193924 -5.3834193715593395e-17 -3.007733927204943e-17 -5.3834193715593395e-17 0.032576739764193806 -8.354363808329128e-17 -3.007733927204943e-17 -8.354363808329128e-17 0.032870987563114566" pbc="T T T"
Si       1.97264691       1.13890822       0.40702900
Si       1.97264691      -1.13890822       3.65969960
Si       1.97264691       1.13890822       2.84564159
Si       1.97264691      -1.13890822      -0.40702900
4
Lattice="1.972580338222841 -3.416609367813362 -1.7691915641655936e-17 1.972580338222841 3.416609367813362 1.7691915641655936e-17 1.4838919776105264e-34 -3.399190779904671e-17 6.5057802640486555" Properties=species:S:1:pos:R:3 cutoff=-1.0 nneightol=1.2 n_minim_iter=3 stress="0.03270521674082491 5.870148004562955e-17 -3.4012726738770925e-17 5.870148004562955e-17 0.03270521674082542 -7.224191577866933e-17 -3.4012726738770925e-17 -7.224191577866933e-17 0.03254734521343824" pbc="T T T"
Si       1.97258034       1.13886979       0.40818641
Si       1.97258034      -1.13886979       3.66107654
Si       1.97258034       1.13886979       2.84470372
Si       1.97258034      -1.13886979      -0.40818641
