4
Lattice="2.0686777346446994 -3.583054940891108 7.80018358412595e-18 2.0686777346447 3.583054940891108 -7.800183584125933e-18 -2.819593489859988e-32 1.4984337074601316e-17 6.883133250913646" Properties=species:S:1:pos:R:3 cutoff=-1.0 nneightol=1.2 n_minim_iter=1 energy=-651.7224444889479 free_energy=-651.7224444889479 pbc="T T T"
Si       2.06867773       1.19435165       0.43896094
Si       2.06867773      -1.19435165       3.88052757
Si       2.06867773       1.19435165       3.00260568
Si       2.06867773      -1.19435165      -0.43896094
4
Lattice="2.066368363044668 -3.579054991946298 1.0801904185686336e-17 2.0663683630446683 3.579054991946298 -1.0801904185686299e-17 -2.868156540795973e-32 9.232817457481919e-18 6.89852701637287" Properties=species:S:1:pos:R:3 cutoff=-1.0 nneightol=1.2 n_minim_iter=2 stress="0.07019115900434592 -1.2045564645079282e-16 4.0305349736425333e-16 -1.2045564645079282e-16 0.07019115900434736 2.4328250366059e-16 4.0305349736425333e-16 2.4328250366059e-16 0.07123120149216598" pbc="T T T"
Si       2.06636836       1.19301833       0.44189817
Si       2.06636836      -1.19301833       3.89116168
Si       2.06636836       1.19301833       3.00736533
Si       2.06636836      -1.19301833      -0.44189817
4
Lattice="2.066806344356192 -3.579813597830624 1.1538454507344801e-17 2.0668063443561926 3.579813597830624 -1.1538454507344749e-17 -2.650077015212634e-32 7.810263049008315e-18 6.89560356321038" Properties=species:S:1:pos:R:3 cutoff=-1.0 nneightol=1.2 n_minim_iter=3 stress="0.07032668143213681 -8.273268176220005e-18 -1.0268445773916354e-17 -8.273268176220005e-18 0.07032668143213854 5.639614970845489e-17 -1.0268445773916354e-17 5.639614970845489e-17 0.07075011858790757" pbc="T T T"
Si       2.06680634       1.19327120       0.44265004
Si       2.06680634      -1.19327120       3.89045182
Si       2.06680634       1.19327120       3.00515174
Si       2.06680634      -1.19327120      -0.44265004
4
Lattice="2.0671072450948356 -3.5803347731979898 1.1614431280834238e-17 2.067107245094836 3.5803347731979898 -1.1614431280834198e-17 -2.7968607305068144e-32 7.659082007507351e-18 6.893596177097731" Properties=species:S:1:pos:R:3 cutoff=-1.0 nneightol=1.2 n_minim_iter=4 stress="0.0704211203184447 -1.1602974957884203e-16 2.6436147646423725e-17 -1.1602974957884203e-16 0.07042112031844527 1.2982781662332439e-17 2.6436147646423725e-17 1.2982781662332439e-17 0.07041750830039382" pbc="T T T"
Si       2.06710725       1.19344492       0.44316554
Si       2.06710725      -1.19344492       3.88996363
Si       2.06710725       1.19344492       3.00363255
Si       2.06710725      -1.19344492      -0.44316554
