4
Lattice="1.9575722626513334 -3.390614618399676 1.1688288577353603e-17 1.9575722626513334 3.390614618399676 -1.1688288577353597e-17 -9.130945551560726e-33 2.225809713715594e-17 6.456773293330859" Properties=species:S:1:pos:R:3 cutoff=-1.0 nneightol=1.2 n_minim_iter=1 energy=-652.60248341285 free_energy=-652.60248341285 pbc="T T T"
Si       1.95757226       1.13020487       0.40433954
Si       1.95757226      -1.13020487       3.63272619
Si       1.95757226       1.13020487       2.82404710
Si       1.95757226      -1.13020487      -0.40433954
4
Lattice="1.9570766971491296 -3.3897562737713822 1.1237334263392259e-17 1.9570766971491296 3.3897562737713822 -1.1237334263392237e-17 -9.126472093667643e-33 2.3122491865936467e-17 6.460043639578184" Properties=species:S:1:pos:R:3 cutoff=-1.0 nneightol=1.2 n_minim_iter=2 stress="0.023697164585057783 -6.934175180952392e-17 2.1283304903521048e-16 -6.934175180952392e-17 0.023697164585057672 -1.686243447130621e-17 2.1283304903521048e-16 -1.686243447130621e-17 0.024074363683454187" pbc="T T T"
Si       1.95707670       1.12991876       0.40428334
Si       1.95707670      -1.12991876       3.63430516
Si       1.95707670       1.12991876       2.82573848
Si       1.95707670      -1.12991876      -0.40428334
