4
Lattice="1.9265155278671833 -3.3368227758363362 1.1516918691200808e-17 1.9265155278671833 3.3368227758363362 -1.1516918691200805e-17 -1.0838209652794333e-33 -2.171343478977679e-17 6.349167971605417" Properties=species:S:1:pos:R:3 cutoff=-1.0 nneightol=1.2 n_minim_iter=4 pbc="T T T"
Si       1.92651553       1.11227426       0.39776156
Si       1.92651553      -1.11227426       3.57234555
Si       1.92651553       1.11227426       2.77682242
Si       1.92651553      -1.11227426      -0.39776156
