2
Lattice="4.809646883770832 -3.066298410286035e-17 1.5134014095197765e-16 -3.066298410285976e-17 4.809646883770832 -2.2014995585399525e-16 2.404823441885416 2.404823441885416 1.3265824602014857" Properties=species:S:1:pos:R:3 cutoff=-1.0 nneightol=1.2 n_minim_iter=1 energy=-325.7133549500666 free_energy=-325.7133549500666 pbc="T T T"
Si      -0.00000000      -1.20241172      -0.33164562
Si      -0.00000000       1.20241172       0.33164562
