4
Lattice="2.0305157758272903 -3.5169564893030034 1.1149281579917614e-17 2.0305157758272885 3.5169564893030034 -1.1149281579917288e-17 -5.433452628966271e-31 2.1292074196564245e-17 6.716423652911462" Properties=species:S:1:pos:R:3 cutoff=-1.0 nneightol=1.2 n_minim_iter=1 energy=-652.1311754498485 free_energy=-652.1311754498485 pbc="T T T"
Si       2.03051578       1.17231883       0.42124737
Si       2.03051578      -1.17231883       3.77945920
Si       2.03051578       1.17231883       2.93696445
Si       2.03051578      -1.17231883      -0.42124737
4
Lattice="2.0296205044221005 -3.5154058337426517 1.0110779197999287e-17 2.0296205044220987 3.5154058337426517 -1.011077919799882e-17 -5.499841893896012e-31 2.3284729594420578e-17 6.722350227075537" Properties=species:S:1:pos:R:3 cutoff=-1.0 nneightol=1.2 n_minim_iter=2 stress="0.0628335847879729 8.807078100026137e-17 -2.314721704867606e-16 8.807078100026137e-17 0.06283358478797281 -2.3128378588141384e-18 -2.314721704867606e-16 -2.3128378588141384e-18 0.06287253475103693" pbc="T T T"
Si       2.02962050       1.17180194       0.42196926
Si       2.02962050      -1.17180194       3.78314438
Si       2.02962050       1.17180194       2.93920585
Si       2.02962050      -1.17180194      -0.42196926
4
Lattice="2.028928028361732 -3.514206430023068 9.827397973431135e-18 2.0289280283617304 3.514206430023068 -9.827397973430612e-18 -5.391006719511092e-31 2.3833762356443614e-17 6.726939705782563" Properties=species:S:1:pos:R:3 cutoff=-1.0 nneightol=1.2 n_minim_iter=3 stress="0.06257673682098576 -4.3107113958620024e-17 -2.37078137115737e-16 -4.3107113958620024e-17 0.0625767368209857 2.0857061914704051e-16 -2.37078137115737e-16 2.0857061914704051e-16 0.06310272142851754" pbc="T T T"
Si       2.02892803       1.17140214       0.42358903
Si       2.02892803      -1.17140214       3.78705888
Si       2.02892803       1.17140214       2.93988083
Si       2.02892803      -1.17140214      -0.42358903
