4
Lattice="2.068922934327873 -3.5834796392003634 6.415648214415929e-18 2.068922934327872 3.5834796392003634 -6.4156482144158334e-18 -1.5649398039735024e-31 1.2321680359534078e-17 6.882311687525325" Properties=species:S:1:pos:R:3 cutoff=-1.0 nneightol=1.2 n_minim_iter=1 energy=-651.718366965362 free_energy=-651.718366965362 pbc="T T T"
Si       2.06892293       1.19449321       0.43875241
Si       2.06892293      -1.19449321       3.87990825
Si       2.06892293       1.19449321       3.00240343
Si       2.06892293      -1.19449321      -0.43875241
4
Lattice="2.0666011139777085 -3.5794581283878326 4.133710503922592e-18 2.0666011139777076 3.5794581283878326 -4.133710503922454e-18 -1.5622199113849634e-31 1.6720135436750098e-17 6.897784889083366" Properties=species:S:1:pos:R:3 cutoff=-1.0 nneightol=1.2 n_minim_iter=2 stress="0.07054906702121602 2.9202489018391717e-16 2.0418883509169944e-16 2.9202489018391717e-16 0.07054906702121622 -2.223244495659192e-17 2.0418883509169944e-16 -2.223244495659192e-17 0.07160252129474251" pbc="T T T"
Si       2.06660111       1.19315271       0.44181923
Si       2.06660111      -1.19315271       3.89071168
Si       2.06660111       1.19315271       3.00707321
Si       2.06660111      -1.19315271      -0.44181923
4
Lattice="2.067079479781528 -3.5802866822646506 6.04140404620911e-18 2.067079479781527 3.5802866822646506 -6.041404046209001e-18 -1.5233153671326848e-31 1.3055026133955581e-17 6.894592672587267" Properties=species:S:1:pos:R:3 cutoff=-1.0 nneightol=1.2 n_minim_iter=3 stress="0.0707003342180862 8.891709622725574e-17 -8.450072421252391e-17 8.891709622725574e-17 0.07070033421808612 -1.0753049533449913e-16 -8.450072421252391e-17 -1.0753049533449913e-16 0.07110141514253579" pbc="T T T"
Si       2.06707948       1.19342889       0.44253961
Si       2.06707948      -1.19342889       3.88983594
Si       2.06707948       1.19342889       3.00475673
Si       2.06707948      -1.19342889      -0.44253961
4
Lattice="2.067373204261079 -3.58079542798666 9.485409366133855e-18 2.067373204261078 3.58079542798666 -9.485409366133689e-18 -1.4389702305070055e-31 6.4377049058122095e-18 6.892633697032872" Properties=species:S:1:pos:R:3 cutoff=-1.0 nneightol=1.2 n_minim_iter=4 stress="0.07079419727840103 -1.133338918005356e-16 -1.3751978653778281e-17 -1.133338918005356e-16 0.07079419727840068 -1.3722543169916988e-16 -1.3751978653778281e-17 -1.3722543169916988e-16 0.07079086485599327" pbc="T T T"
Si       2.06737320       1.19359848       0.44298446
Si       2.06737320      -1.19359848       3.88930131
Si       2.06737320       1.19359848       3.00333239
Si       2.06737320      -1.19359848      -0.44298446
