1
Lattice="2.574816612653291 1.2014677336069123e-16 6.675263841641962e-50 1.2874083063266455 2.2298565966439465 -6.918689680579049e-50 -5.6576544329992676e-49 1.0256994015443378e-48 2.3987348880574615" Properties=species:S:1:pos:R:3 cutoff=-1.0 nneightol=1.2 n_minim_iter=1 energy=-162.78729733659594 free_energy=-162.78729733659594 pbc="T T T"
Si       0.00000000       0.00000000       0.00000000
