79
Lattice="10.299562 0.0 6.306662817959856e-16 1.65629589339488e-15 10.299562 6.306662817959856e-16 0.0 0.0 20.599124" Properties=species:S:1:pos:R:3 uid=18fd88e9e62e4be0a0ca36b8461e98da origin=010-3 type=slab pbc="T T T"
In       2.57489050       0.00000000       7.87377826
In       2.57489050       5.14978100       3.41291436
In       7.72467150       0.00000000       3.41291436
In       7.72467150       2.57489050       5.64334631
In       0.00000000       9.95510345       0.49356531
In       5.14978100       9.95510345       5.64334631
In       5.14978100       5.49423955       0.49356531
In       9.95510345       7.72467150       3.06845581
In       7.72467150       7.72467150       0.49356531
In       9.95510345       2.57489050       8.21823681
In       5.49423955       2.57489050       3.06845581
In       0.00000000       5.49423955       5.64334631
In       7.72467150       5.14978100       7.87377826
In       2.57489050       7.72467150       5.64334631
In       7.72467150       7.72467150       5.64334631
In       7.72467150       5.14978100       2.72399726
In       7.72467150       0.00000000       8.56269536
In       2.57489050       5.14978100       8.56269536
In       2.57489050       7.72467150       0.49356531
In       0.34445855       2.57489050       3.06845581
In       5.14978100       4.80532245       5.64334631
In       0.00000000       4.80532245       0.49356531
In       0.00000000       0.34445855       5.64334631
In       4.80532245       2.57489050       8.21823681
In       2.57489050       2.57489050       5.64334631
In       4.80532245       7.72467150       3.06845581
In       0.34445855       7.72467150       8.21823681
In       5.14978100       0.34445855       0.49356531
In       2.57489050       0.00000000       2.72399726
In       7.72467150       2.57489050       0.49356531
In       2.57489050       2.57489050       0.49356531
O        6.28289761       6.36509842       6.63047693
O        3.93446358       8.71180212       7.08512020
O        9.08424458       8.71180212       9.35135342
O        8.71180212       1.13311661       7.00291939
O        9.16644539       3.93446358       6.63047693
O        9.08424458       6.73754088       7.08512020
O        8.71180212       4.01666439       9.43355423
O        3.93446358       6.73754088       9.35135342
O        6.36509842       6.73754088       1.93533920
O        1.21531742       8.71180212       1.93533920
O        1.13311661       3.93446358       4.65621569
O        8.71180212       6.28289761       4.28377323
O        4.01666439       6.36509842       4.65621569
O        1.13311661       9.08424458       6.63047693
O        4.01666439       1.21531742       6.63047693
O        1.21531742       6.73754088       4.20157242
O        6.36509842       8.71180212       4.20157242
O        8.71180212       9.16644539       1.85313839
O        9.16644539       9.08424458       4.65621569
O        6.73754088       1.13311661       1.85313839
O        6.73754088       9.16644539       7.00291939
O        6.28289761       1.21531742       4.65621569
O        6.73754088       6.28289761       9.43355423
O        6.73754088       4.01666439       4.28377323
O        1.13311661       1.21531742       1.48069593
O        9.08424458       3.56202112       1.93533920
O        3.93446358       3.56202112       4.20157242
O        3.56202112       6.28289761       1.85313839
O        4.01666439       9.08424458       1.48069593
O        3.93446358       1.58775988       1.93533920
O        3.56202112       9.16644539       4.28377323
O        9.08424458       1.58775988       4.20157242
O        1.21531742       1.58775988       7.08512020
O        6.36509842       3.56202112       7.08512020
O        6.28289761       9.08424458       9.80599669
O        3.56202112       1.13311661       9.43355423
O        9.16644539       1.21531742       9.80599669
O        6.28289761       3.93446358       1.48069593
O        9.16644539       6.36509842       1.48069593
O        6.36509842       1.58775988       9.35135342
O        1.21531742       3.56202112       9.35135342
O        3.56202112       4.01666439       7.00291939
O        4.01666439       3.93446358       9.80599669
O        1.58775988       6.28289761       7.00291939
O        1.58775988       4.01666439       1.85313839
O        1.13311661       6.36509842       9.80599669
O        1.58775988       1.13311661       4.28377323
O        1.58775988       9.16644539       9.43355423
