2
Lattice="2.917770522359278 9.35649830277327e-17 2.917770522359278 2.917770522359278 2.917770522359278 1.667093563781525e-16 5.925506858307258e-17 2.917770522359278 2.917770522359278" Properties=species:S:1:pos:R:3 n_minim_iter=1 energy=-325.98211993199766 free_energy=-325.98211993199766 pbc="T T T"
Si       0.00000000      -0.00000000      -0.00000000
Si       1.45888526       1.45888526       1.45888526
