2
Lattice="2.6261935763094577 8.421490158734234e-17 2.6261935763094577 2.6261935763094577 2.6261935763094577 1.5004985398131257e-16 5.333362554873326e-17 2.6261935763094577 2.6261935763094577" Properties=species:S:1:pos:R:3 n_minim_iter=1 energy=-326.1874961032555 free_energy=-326.1874961032555 pbc="T T T"
Si       0.00000000      -0.00000000      -0.00000000
Si       1.31309679       1.31309679       1.31309679
