2
Lattice="2.699180444476155 8.655539239322739e-17 2.699180444476155 2.699180444476155 2.699180444476155 1.542200221706493e-16 5.481586750221777e-17 2.699180444476155 2.699180444476155" Properties=species:S:1:pos:R:3 n_minim_iter=1 energy=-326.34109377309 free_energy=-326.34109377309 pbc="T T T"
Si       0.00000000      -0.00000000      -0.00000000
Si       1.34959022       1.34959022       1.34959022
