8
Lattice="5.390841450095275 0.0 0.0 0.0 5.453841560185543 -2.627280465245054e-16 0.0 2.608974947749789e-16 5.415842041893892" Properties=species:S:1:pos:R:3 unique_starting_index=2 config_type=initial n_minim_iter=1 energy=-1300.6112471183014 free_energy=-1300.6112471183014 pbc="T T T"
Si       2.69149710       1.39895736       3.77135999
Si       2.69934435       1.39895736       1.64448205
Si       3.74764926       3.51379552       2.70364793
Si       1.64319219       3.51379552       2.71219411
Si       5.39476508       4.05488420       1.06343897
Si      -0.00392363       4.05488420       4.35240307
Si       4.33861291       1.94004604       5.41156895
Si       1.05222854       1.94004604       0.00427309
8
Lattice="5.465121907321244 0.0 0.0 0.0 5.450052481406072 -2.6262823255192185e-16 0.0 2.6144298020956615e-16 5.4288787628741355" Properties=species:S:1:pos:R:3 unique_starting_index=2 config_type=initial n_minim_iter=2 stress="0.00418227433028612 1.6299724463174556e-15 2.7571547794190824e-16 1.6299724463174556e-15 0.01066913409871829 4.679991443644211e-16 2.7571547794190824e-16 4.679991443644211e-16 0.014470188213481264" pbc="T T T"
Si       2.72858180       1.39760819       3.78032258
Si       2.73654011       1.39760819       1.64855618
Si       3.80175510       3.51158304       2.71016672
Si       1.66336680       3.51158304       2.71871204
Si       5.46910107       4.05244429       1.06588320
Si      -0.00397916       4.05244429       4.36299557
Si       4.39592776       1.93846944       5.42460610
Si       1.06919415       1.93846944       0.00427266
8
Lattice="5.46845001386713 0.0 0.0 0.0 5.438565363766918 -2.621087584434491e-16 0.0 2.607519452600828e-16 5.415229723106107" Properties=species:S:1:pos:R:3 unique_starting_index=2 config_type=initial n_minim_iter=3 stress="0.005681720452703299 -2.498232965507365e-15 3.237827803495421e-17 -2.498232965507365e-15 0.0008815758311262582 -3.3640664656942446e-16 3.237827803495421e-17 -3.3640664656942446e-16 -0.005841360226637849" pbc="T T T"
Si       2.73024827       1.39420443       3.77047159
Si       2.73820175       1.39420443       1.64475813
Si       3.80491620       3.50459627       2.70337908
Si       1.66353382       3.50459627       2.71185064
Si       5.47242675       4.04436093       1.06285673
Si      -0.00397674       4.04436093       4.35237299
Si       4.39775882       1.93396910       5.41099394
Si       1.07069119       1.93396910       0.00423578
8
Lattice="5.457445127190599 0.0 0.0 0.0 5.421777156483391 -2.6140882012151604e-16 0.0 2.610904880747183e-16 5.424506219564509" Properties=species:S:1:pos:R:3 unique_starting_index=2 config_type=initial n_minim_iter=4 stress="-0.0003587781446299386 -2.0723389332461215e-15 1.7620565857694707e-16 -2.0723389332461215e-15 -0.012436408429882551 1.1799570019196353e-15 1.7620565857694707e-16 1.1799570019196353e-15 0.005431405142445281" pbc="T T T"
Si       2.72477352       1.38791771       3.77746244
Si       2.73267160       1.38791771       1.64704378
Si       3.80022739       3.49551314       2.70813289
Si       1.65721773       3.49551314       2.71637333
Si       5.46139417       4.03385945       1.06520933
Si      -0.00394904       4.03385945       4.35929689
Si       4.38594030       1.92626402       5.42038600
Si       1.07150483       1.92626402       0.00412022
8
Lattice="5.381998366525948 0.0 0.0 0.0 5.470796226834827 -2.6377194397687215e-16 0.0 2.610877305911556e-16 5.424526437042336" Properties=species:S:1:pos:R:3 unique_starting_index=2 config_type=initial n_minim_iter=5 stress="-0.01822726751254839 -1.623779812555372e-15 2.59178735465331e-16 -1.623779812555372e-15 0.007617193628939042 -1.977982424171488e-15 2.59178735465331e-16 -1.977982424171488e-15 -0.007365267664189468" pbc="T T T"
Si       2.68730302       1.38346176       3.77754847
Si       2.69469534       1.38346176       1.64697797
Si       3.77186417       3.54175410       2.70920258
Si       1.61013419       3.54175410       2.71532386
Si       5.38569453       4.08733447       1.06528525
Si      -0.00369616       4.08733447       4.35924119
Si       4.30113337       1.92904213       5.42146579
Si       1.08086499       1.92904213       0.00306064
8
Lattice="5.395804310990689 0.0 0.0 0.0 5.449427889969979 -2.6291924368577507e-16 0.0 2.631538114342839e-16 5.47099693666871" Properties=species:S:1:pos:R:3 unique_starting_index=2 config_type=initial n_minim_iter=6 stress="3.0454998978943366e-06 2.946203981692817e-15 1.616435263146204e-16 2.946203981692817e-15 -0.007584796147247211 -1.7110274587987624e-15 1.616435263146204e-16 -1.7110274587987624e-15 0.0054398242208986225" pbc="T T T"
Si       2.69444400       1.35983334       3.79905037
Si       2.70136031       1.35983334       1.67194656
Si       3.78477367       3.53222438       2.73304446
Si       1.61103064       3.53222438       2.73795248
Si       5.39926246       4.08959455       1.06355190
Si      -0.00345815       4.08959455       4.40744503
Si       4.30893280       1.91720351       5.46854292
Si       1.08687151       1.91720351       0.00245401
8
Lattice="5.376239982863785 0.0 0.0 0.0 5.510402486159498 -2.6593677782103525e-16 0.0 2.6196919659218675e-16 5.44821052852711" Properties=species:S:1:pos:R:3 unique_starting_index=2 config_type=initial n_minim_iter=7 stress="-0.004478459758947506 1.7017434050335373e-15 5.029910529227058e-17 1.7017434050335373e-15 -0.004347645484397504 7.95908107545685e-16 5.029910529227058e-17 7.95908107545685e-16 -0.009469580327302612" pbc="T T T"
Si       2.68535134       1.32369650       3.78869329
Si       2.69088864       1.32369650       1.65951724
Si       3.79077577       3.58031266       2.72309694
Si       1.58546422       3.58031266       2.72511359
Si       5.37900863       4.18670599       1.06458802
Si      -0.00276865       4.18670599       4.38362250
Si       4.27358421       1.93008982       5.44720220
Si       1.10265577       1.93008982       0.00100833
8
Lattice="5.407453377987751 0.0 0.0 0.0 5.563458894467057 -2.684795180777032e-16 0.0 2.5993519770663133e-16 5.405879730766345" Properties=species:S:1:pos:R:3 unique_starting_index=2 config_type=initial n_minim_iter=8 stress="0.019091037564354544 -1.2402968189414238e-15 2.1558541847228724e-16 -1.2402968189414238e-15 0.00984644398411 6.873773535625523e-16 2.1558541847228724e-16 6.873773535625523e-16 -0.012768784775701394" pbc="T T T"
Si       2.70167042       1.29833324       3.77122097
Si       2.70578295       1.29833324       1.63465876
Si       3.81418928       3.61054426       2.70244290
Si       1.59326410       3.61054426       2.70343683
Si       5.40950964       4.26512566       1.06828110
Si      -0.00205626       4.26512566       4.33759863
Si       4.29699079       1.95291463       5.40538276
Si       1.11046259       1.95291463       0.00049697
8
Lattice="5.397801322933361 0.0 0.0 0.0 5.545274310086166 -2.677842597053223e-16 0.0 2.589219278936177e-16 5.388569920178901" Properties=species:S:1:pos:R:3 unique_starting_index=2 config_type=initial n_minim_iter=9 stress="5.586058402834986e-05 9.980786823367911e-17 2.0020995895872792e-16 9.980786823367911e-17 0.002261424979044572 6.532252893362861e-16 2.0020995895872792e-16 6.532252893362861e-16 -0.012095611074427214" pbc="T T T"
Si       2.69740535       1.29772215       3.77130727
Si       2.70039598       1.29772215       1.61726265
Si       3.79372163       3.58124325       2.69269405
Si       1.60407969       3.58124325       2.69587587
Si       5.39929664       4.24755216       1.07702231
Si      -0.00149531       4.24755216       4.31154761
Si       4.30298035       1.96403106       5.38697901
Si       1.09482097       1.96403106       0.00159091
8
Lattice="5.385507532367071 0.0 0.0 0.0 5.565962152350334 -2.6899678333401384e-16 0.0 2.583486437740221e-16 5.381199520317977" Properties=species:S:1:pos:R:3 unique_starting_index=2 config_type=initial n_minim_iter=10 stress="-0.006057137971261017 2.1016586171426836e-15 1.7351610323342387e-16 2.1016586171426836e-15 -0.003755368053915699 1.891647618106934e-15 1.7351610323342387e-16 1.891647618106934e-15 -0.020470723421187106" pbc="T T T"
Si       2.69228019       1.26323470       3.77675251
Si       2.69322735       1.26323470       1.60444701
Si       3.78564161       3.58780919       2.68923142
Si       1.59986592       3.58780919       2.69196810
Si       5.38598111       4.30272745       1.08615275
Si      -0.00047358       4.30272745       4.29504677
Si       4.29261969       1.97815296       5.37983118
Si       1.09288785       1.97815296       0.00136834
8
Lattice="5.3882293662612515 0.0 0.0 0.0 5.584264087923247 -2.7014365806659074e-16 0.0 2.581508919557571e-16 5.38262538089057" Properties=species:S:1:pos:R:3 unique_starting_index=2 config_type=initial n_minim_iter=11 stress="-0.008156897366081448 5.542331127050991e-16 1.1705088441239732e-16 5.542331127050991e-16 -0.010760093764171424 -1.7052642697973933e-15 1.1705088441239732e-16 -1.7052642697973933e-15 -0.021805755666569233" pbc="T T T"
Si       2.69473691       1.22954703       3.79292172
Si       2.69349246       1.22954703       1.58970366
Si       3.77840211       3.58832211       2.68996703
Si       1.60982726       3.58832211       2.69265835
Si       5.38760714       4.35471706       1.10160903
Si       0.00062222       4.35471706       4.28101635
Si       4.30394194       1.99594198       5.38127972
Si       1.08428742       1.99594198       0.00134566
8
Lattice="5.396246961754726 0.0 0.0 0.0 5.5855213942600415 -2.7037934473897346e-16 0.0 2.5897488241322856e-16 5.403244716553379" Properties=species:S:1:pos:R:3 unique_starting_index=2 config_type=initial n_minim_iter=12 stress="-0.007334973672699993 3.4541424648811747e-16 -2.779488621383545e-16 3.4541424648811747e-16 -0.008090658150034761 -1.6533612723536943e-16 -2.779488621383545e-16 -1.6533612723536943e-16 -0.007435742912966502" pbc="T T T"
Si       2.69866638       1.23258007       3.80937236
Si       2.69758058       1.23258007       1.59387236
Si       3.77734866       3.58805300       2.70018799
Si       1.61889830       3.58805300       2.70305673
Si       5.39570406       4.35294133       1.10775000
Si       0.00054290       4.35294133       4.29549471
Si       4.31702178       1.99746839       5.40181035
Si       1.07922518       1.99746839       0.00143437
8
Lattice="5.413972429365325 0.0 0.0 0.0 5.5977711784167195 -2.7103724624828814e-16 0.0 2.591949170704223e-16 5.409241427502333" Properties=species:S:1:pos:R:3 unique_starting_index=2 config_type=initial n_minim_iter=13 stress="0.0025698480050163133 -1.1345888511061009e-15 -4.021814306395301e-16 -1.1345888511061009e-15 0.0011285173196580358 -4.0122879716330524e-15 -4.021814306395301e-16 -4.0122879716330524e-15 0.002709558269910486" pbc="T T T"
Si       2.70692123       1.25060487       3.81673557
Si       2.70705120       1.25060487       1.59250586
Si       3.78711876       3.60254657       2.70335179
Si       1.62685367       3.60254657       2.70588963
Si       5.41403742       4.34716631       1.11211485
Si      -0.00006499       4.34716631       4.29712658
Si       4.33383989       1.99522460       5.40797251
Si       1.08013254       1.99522460       0.00126892
8
Lattice="5.429715489017976 0.0 0.0 0.0 5.611668654058948 -2.7197999799907934e-16 0.0 2.583583178987164e-16 5.397634785258255" Properties=species:S:1:pos:R:3 unique_starting_index=2 config_type=initial n_minim_iter=14 stress="0.00036803841326298595 -2.2550977271899955e-16 -2.126264194441884e-16 -2.2550977271899955e-16 0.0017974013912831351 2.810328524006092e-16 -2.126264194441884e-16 2.810328524006092e-16 0.004960852508111736" pbc="T T T"
Si       2.71457367       1.25671815       3.81947241
Si       2.71514182       1.25671815       1.57816238
Si       3.79160800       3.61279402       2.69756581
Si       1.63810749       3.61279402       2.70006898
Si       5.42999957       4.35495050       1.12065502
Si      -0.00028408       4.35495050       4.27697977
Si       4.35296523       1.99887464       5.39638320
Si       1.07675025       1.99887464       0.00125159
8
Lattice="5.4341911724234535 0.0 0.0 0.0 5.607392311268758 -2.7196972914068204e-16 0.0 2.578191758804134e-16 5.390497927387271" Properties=species:S:1:pos:R:3 unique_starting_index=2 config_type=initial n_minim_iter=15 stress="0.003369268173596691 -3.83195743436548e-16 -4.69195380694616e-16 -3.83195743436548e-16 0.0030599789010388387 2.63433872348177e-16 -4.69195380694616e-16 2.63433872348177e-16 -0.0009030614610525296" pbc="T T T"
Si       2.71641202       1.26525974       3.81421590
Si       2.71777916       1.26525974       1.57628202
Si       3.79530187       3.61488218       2.69408043
Si       1.63888931       3.61488218       2.69641750
Si       5.43487474       4.34213257       1.11896694
Si      -0.00068357       4.34213257       4.27153099
Si       4.35598489       1.99251013       5.38932939
Si       1.07820628       1.99251013       0.00116854
8
Lattice="5.425840537548636 0.0 0.0 0.0 5.59351843913538 -2.716009556145784e-16 0.0 2.580548734159826e-16 5.401370284197668" Properties=species:S:1:pos:R:3 unique_starting_index=2 config_type=initial n_minim_iter=16 stress="0.0009956906048964927 3.6758180929716484e-16 3.705276172820537e-17 3.6758180929716484e-16 0.0002453042131647602 -6.455327478911116e-16 3.705276172820537e-17 -6.455327478911116e-16 0.002380127952937481" pbc="T T T"
Si       2.71178925       1.26426000       3.82104249
Si       2.71405128       1.26426000       1.58032780
Si       3.79129046       3.61868904       2.69987366
Si       1.63455007       3.61868904       2.70149662
Si       5.42697155       4.32925844       1.12035735
Si      -0.00113102       4.32925844       4.28101294
Si       4.34747034       1.97482940       5.40055880
Si       1.07837020       1.97482940       0.00081148
8
Lattice="5.426437429164318 0.0 0.0 0.0 5.588969783146217 -2.7155468418335003e-16 0.0 2.579203788289601e-16 5.402098068152785" Properties=species:S:1:pos:R:3 unique_starting_index=2 config_type=initial n_minim_iter=17 stress="-0.0010706305510628834 -5.277994931763712e-16 -3.2038899933719433e-16 -5.277994931763712e-16 -0.0018368963637160575 -1.0143474451592112e-17 -3.2038899933719433e-16 -1.0143474451592112e-17 0.0008437408308891454" pbc="T T T"
Si       2.71199957       1.26614226       3.82064241
Si       2.71443786       1.26614226       1.58145565
Si       3.79096860       3.61749098       2.70021104
Si       1.63546883       3.61749098       2.70188703
Si       5.42765657       4.32282752       1.11959338
Si      -0.00121914       4.32282752       4.28250469
Si       4.34868754       1.97147880       5.40126008
Si       1.07774988       1.97147880       0.00083799
8
Lattice="5.429785290735444 0.0 0.0 0.0 5.589880496273664 -2.717909152343935e-16 0.0 2.576504836529547e-16 5.400483345229684" Properties=species:S:1:pos:R:3 unique_starting_index=2 config_type=initial n_minim_iter=18 stress="-0.0009314735683368654 3.691889399842216e-15 -5.130443383743092e-16 3.691889399842216e-15 -0.0004967111971686712 -1.4877918050515366e-15 -5.130443383743092e-16 -1.4877918050515366e-15 0.0004728948207534742" pbc="T T T"
Si       2.71372958       1.26720145       3.81913173
Si       2.71605571       1.26720145       1.58135162
Si       3.79189250       3.61684587       2.69932634
Si       1.63789279       3.61684587       2.70115701
Si       5.43094835       4.32267905       1.11889005
Si      -0.00116306       4.32267905       4.28159329
Si       4.35278544       1.97303463       5.39956801
Si       1.07699986       1.97303463       0.00091533
8
Lattice="5.432253548494611 0.0 0.0 0.0 5.590681223242608 -2.7194798925972664e-16 0.0 2.575054581809799e-16 5.399928966245717" Properties=species:S:1:pos:R:3 unique_starting_index=2 config_type=initial n_minim_iter=19 stress="0.0003086616347111235 2.9106014919107072e-15 -3.2188400711892286e-17 2.9106014919107072e-15 -0.00032948591332991356 -2.162303153704764e-15 -3.2188400711892286e-17 -2.162303153704764e-15 0.00011200985523833476" pbc="T T T"
Si       2.71498356       1.26738991       3.81853115
Si       2.71726999       1.26738991       1.58139782
Si       3.79316180       3.61852800       2.69909076
Si       1.63909175       3.61852800       2.70083820
Si       5.43339677       4.32329131       1.11856666
Si      -0.00114322       4.32329131       4.28136230
Si       4.35521852       1.97215323       5.39905525
Si       1.07703503       1.97215323       0.00087372
8
Lattice="5.432418775998195 0.0 0.0 0.0 5.591781802688779 -2.7212311737118917e-16 0.0 2.57375976471975e-16 5.3997711797224826" Properties=species:S:1:pos:R:3 unique_starting_index=2 config_type=initial n_minim_iter=20 stress="0.00018599053842643088 5.581207410580555e-15 -3.013284189349223e-16 5.581207410580555e-15 -0.00015372359269167062 -1.130759880582854e-15 -3.013284189349223e-16 -1.130759880582854e-15 5.475087280610026e-05" pbc="T T T"
Si       2.71512602       1.26717437       3.81840877
Si       2.71729276       1.26717437       1.58136241
Si       3.79307757       3.61969546       2.69904223
Si       1.63934121       3.61969546       2.70072895
Si       5.43350215       4.32460743       1.11852318
Si      -0.00108337       4.32460743       4.28124800
Si       4.35555060       1.97208634       5.39892782
Si       1.07686818       1.97208634       0.00084336
