8
Lattice="5.5296463079013005 0.0 0.0 0.0 5.440207474593365 -2.8262182426533957e-16 0.0 2.8857712082508005e-16 5.554841399068011" Properties=species:S:1:pos:R:3 unique_starting_index=2 config_type=initial n_minim_iter=1 energy=-1299.9850030272178 free_energy=-1299.9850030272178 pbc="T T T"
Si       2.81619619       1.73706050       3.83675761
Si       2.71345012       1.73706050       1.71808379
Si       3.82403334       3.70355560       2.72659138
Si       1.70561297       3.70355560       2.82825002
Si       5.47827328       3.70314697       1.05933691
Si       0.05137303       3.70314697       4.49550449
Si       4.47043612       1.73665188       5.50401207
Si       1.05921019       1.73665188       0.05082932
8
Lattice="5.482766040734823 0.0 0.0 0.0 5.442685400480782 -2.8303078781852783e-16 0.0 2.852939468954619e-16 5.497154111390988" Properties=species:S:1:pos:R:3 unique_starting_index=2 config_type=initial n_minim_iter=2 stress="-0.0061128029863347835 -7.2620476345127975e-16 -2.0130524634579686e-16 -7.2620476345127975e-16 0.0004939470884514726 -6.66308098432232e-16 -2.0130524634579686e-16 -6.66308098432232e-16 -0.027487574800883426" pbc="T T T"
Si       2.76486466       1.72917960       3.80921282
Si       2.71790138       1.72917960       1.68794129
Si       3.80769518       3.71389944       2.72578985
Si       1.67507086       3.71389944       2.77136426
Si       5.45928441       3.71350580       1.06063577
Si       0.02348164       3.71350580       4.43651834
Si       4.41645388       1.72878596       5.47436691
Si       1.06631216       1.72878596       0.02278720
8
Lattice="5.483522733205675 0.0 0.0 0.0 5.442485641090384 -2.839943114328049e-16 0.0 2.8532187546912727e-16 5.517417872914904" Properties=species:S:1:pos:R:3 unique_starting_index=2 config_type=initial n_minim_iter=3 stress="9.596572594524132e-05 -1.0868821333853562e-15 -3.1112169629280725e-16 -1.0868821333853562e-15 0.0034546248925144043 1.1818663272691415e-15 -3.1112169629280725e-16 1.1818663272691415e-15 0.00443309426152284" pbc="T T T"
Si       2.76185658       1.72783504       3.82470418
Si       2.72166615       1.72783504       1.69271369
Si       3.80906442       3.71502056       2.73926849
Si       1.67445831       3.71502056       2.77814939
Si       5.46342752       3.71465060       1.06599525
Si       0.02009521       3.71465060       4.45142263
Si       4.41621968       1.72746508       5.49797742
Si       1.06730306       1.72746508       0.01944045
8
Lattice="5.48327951336768 0.0 0.0 0.0 5.397231209238427 -2.816236052330674e-16 0.0 2.8670184785486224e-16 5.543279290345072" Properties=species:S:1:pos:R:3 unique_starting_index=2 config_type=initial n_minim_iter=4 stress="-0.04597735225071264 -1.6333504054048445e-15 -1.1720197364063654e-16 -1.6333504054048445e-15 -0.015590998571589746 -1.3716659434217629e-15 -1.1720197364063654e-16 -1.3716659434217629e-15 0.004428522912460494" pbc="T T T"
Si       2.74120197       1.70416610       3.83611960
Si       2.74207755       1.70416610       1.70715969
Si       3.79969943       3.69318603       2.77299585
Si       1.68358009       3.69318603       2.77028344
Si       5.48371730       3.69306511       1.06447996
Si      -0.00043779       3.69306511       4.47879933
Si       4.42521984       1.70404518       5.54463549
Si       1.05805967       1.70404518      -0.00135620
8
Lattice="5.512106073315762 0.0 0.0 0.0 5.394112135628946 -2.8144861573640256e-16 0.0 2.868533618366959e-16 5.545917448217571" Properties=species:S:1:pos:R:3 unique_starting_index=2 config_type=initial n_minim_iter=5 stress="-0.0012403029394488921 -8.20061796719363e-16 -4.460937554916855e-16 -8.20061796719363e-16 -0.01230412067503511 2.1150634266013437e-15 -4.460937554916855e-16 2.1150634266013437e-15 0.0028495205665918562" pbc="T T T"
Si       2.75000249       1.70046819       3.83562140
Si       2.76210358       1.70046819       1.71029605
Si       3.81785289       3.69370166       2.77999482
Si       1.69425318       3.69370166       2.76592263
Si       5.51815662       3.69364394       1.06266268
Si      -0.00605054       3.69364394       4.48325477
Si       4.45030622       1.70041047       5.55295354
Si       1.06179986       1.70041047      -0.00703610
8
Lattice="5.510361462231925 0.0 0.0 0.0 5.413098291469105 -2.8245845204713965e-16 0.0 2.868082792123515e-16 5.54558013200061" Properties=species:S:1:pos:R:3 unique_starting_index=2 config_type=initial n_minim_iter=6 stress="-0.0030782286519442014 -6.453369497914959e-16 -2.3396820316316096e-16 -6.453369497914959e-16 -0.002654741583244571 -1.356512195390178e-15 -2.3396820316316096e-16 -1.356512195390178e-15 0.0018758564807260442" pbc="T T T"
Si       2.74900492       1.70596143       3.83497366
Si       2.76135654       1.70596143       1.71060647
Si       3.81637550       3.70718210       2.77996786
Si       1.69398596       3.70718210       2.76561228
Si       5.51653728       3.70713686       1.06218360
Si      -0.00617581       3.70713686       4.48339654
Si       4.44916670       1.70591619       5.55275792
Si       1.06119477       1.70591619      -0.00717779
8
Lattice="5.503286653565995 0.0 0.0 0.0 5.421974131814014 -2.829166027138734e-16 0.0 2.8665278879840556e-16 5.542581725262613" Properties=species:S:1:pos:R:3 unique_starting_index=2 config_type=initial n_minim_iter=7 stress="0.001928926200853148 3.571331633181802e-16 -1.6238713192875962e-16 3.571331633181802e-16 0.0010502641310859075 -1.8817591610589663e-15 -1.6238713192875962e-16 -1.8817591610589663e-15 -0.0014434249403570854" pbc="T T T"
Si       2.75151629       1.70943704       3.83325983
Si       2.75177036       1.70943704       1.70932190
Si       3.81404881       3.71257217       2.77244706
Si       1.68923784       3.71257217       2.77013466
Si       5.50341369       3.71253709       1.06196896
Si      -0.00012704       3.71253709       4.48061276
Si       4.44088117       1.70940196       5.54373793
Si       1.06240549       1.70940196      -0.00115620
8
Lattice="5.468557326507228 0.0 0.0 0.0 5.410523201654387 -2.8229802097533124e-16 0.0 2.880387857416703e-16 5.568632315575216" Properties=species:S:1:pos:R:3 unique_starting_index=2 config_type=initial n_minim_iter=8 stress="-0.008400579295626048 -1.0946350984119826e-15 2.692657258301771e-16 -1.0946350984119826e-15 0.0022405082384848556 -1.3985362235280973e-15 2.692657258301771e-16 -1.3985362235280973e-15 -0.0013385577160808975" pbc="T T T"
Si       2.73546522       1.69721095       3.84632954
Si       2.73309211       1.69721095       1.72230277
Si       3.79747878       3.71290264       2.78397223
Si       1.67107855       3.71290264       2.78466009
Si       5.46737077       3.71331226       1.06201339
Si       0.00118655       3.71331226       4.50661893
Si       4.40535721       1.69762056       5.56828839
Si       1.06320012       1.69762056       0.00034393
8
Lattice="5.478377165601998 0.0 0.0 0.0 5.404360320805063 -2.820231935551062e-16 0.0 2.882620720184581e-16 5.573770584518055" Properties=species:S:1:pos:R:3 unique_starting_index=2 config_type=initial n_minim_iter=9 stress="-0.001731191504102542 -5.452779481811251e-16 7.658510355246737e-17 -5.452779481811251e-16 0.0001781078979150195 1.4593427874993632e-15 7.658510355246737e-17 1.4593427874993632e-15 -0.0025721985154236572" pbc="T T T"
Si       2.73970324       1.69459444       3.84833411
Si       2.73867393       1.69459444       1.72543647
Si       3.80221229       3.70916322       2.78721589
Si       1.67616488       3.70916322       2.78655470
Si       5.47786251       3.70976588       1.06144882
Si       0.00051466       3.70976588       4.51232176
Si       4.41535346       1.69519710       5.57410118
Si       1.06302371       1.69519710      -0.00033059
8
Lattice="5.477420760591259 0.0 0.0 0.0 5.401378468331736 -2.8194674637786816e-16 0.0 2.886194566748799e-16 5.582139031167698" Properties=species:S:1:pos:R:3 unique_starting_index=2 config_type=initial n_minim_iter=10 stress="0.00017517788422584832 -1.4133993032013253e-15 1.154229705569312e-16 -1.4133993032013253e-15 -8.36569855324853e-05 -1.4890691053733108e-15 1.154229705569312e-16 -1.4890691053733108e-15 0.00014070162594373222" pbc="T T T"
Si       2.73927876       1.69257672       3.85267836
Si       2.73814200       1.69257672       1.72946068
Si       3.80183101       3.70786646       2.79127191
Si       1.67558975       3.70786646       2.79086712
Si       5.47685238       3.70880174       1.06160884
Si       0.00056838       3.70880174       4.52053019
Si       4.41430013       1.69351201       5.58234142
Si       1.06312063       1.69351201      -0.00020239
8
Lattice="5.468117578242582 0.0 0.0 0.0 5.399642446732085 -2.8209940787396705e-16 0.0 2.892602913006292e-16 5.599149173804232" Properties=species:S:1:pos:R:3 unique_starting_index=2 config_type=initial n_minim_iter=11 stress="0.00034998850922568405 9.942457797257796e-16 3.744712270191535e-16 9.942457797257796e-16 -0.00010133903767675504 -7.762062489679391e-16 3.744712270191535e-16 -7.762062489679391e-16 -0.0001016634326221225" pbc="T T T"
Si       2.73500570       1.69086230       3.86093968
Si       2.73311187       1.69086230       1.73820949
Si       3.79771966       3.70620859       2.79916518
Si       1.67039792       3.70620859       2.79998400
Si       5.46717066       3.70878015       1.06136509
Si       0.00094692       3.70878015       4.53778408
Si       4.40445671       1.69343385       5.59873976
Si       1.06366087       1.69343385       0.00040941
8
Lattice="5.456007016017718 0.0 0.0 0.0 5.404384973765025 -2.828756430705162e-16 0.0 2.900916042646389e-16 5.625426378043737" Properties=species:S:1:pos:R:3 unique_starting_index=2 config_type=initial n_minim_iter=12 stress="0.0007651369611248824 1.5615227841042615e-15 -9.502574469728724e-17 1.5615227841042615e-15 0.0001489486194003725 -4.507730697289967e-16 -9.502574469728724e-17 -4.507730697289967e-16 0.0015822086696164331" pbc="T T T"
Si       2.72808900       1.69386211       3.87407056
Si       2.72791801       1.69386211       1.75135581
Si       3.79250413       3.70356597       2.81273755
Si       1.66350288       3.70356597       2.81268883
Si       5.45592152       3.71052286       1.06135738
Si       0.00008549       3.71052286       4.56406900
Si       4.39150639       1.70081901       5.62545074
Si       1.06450062       1.70081901      -0.00002436
8
Lattice="5.458141925858496 0.0 0.0 0.0 5.405288374552888 -2.8334544192267017e-16 0.0 2.8944544761168873e-16 5.62134136708698" Properties=species:S:1:pos:R:3 unique_starting_index=2 config_type=initial n_minim_iter=13 stress="0.0002463766592997523 3.832499160169552e-16 2.407910407393159e-16 3.832499160169552e-16 2.9918962975817038e-05 3.020799581967839e-16 2.407910407393159e-16 3.020799581967839e-16 -5.9071897609116095e-05" pbc="T T T"
Si       2.72912653       1.69441894       3.87184075
Si       2.72901540       1.69441894       1.74950062
Si       3.79335379       3.70365875       2.81076047
Si       1.66478813       3.70365875       2.81058089
Si       5.45808636       3.71086944       1.06117007
Si       0.00005557       3.71086944       4.56017130
Si       4.39385909       1.70162962       5.62143116
Si       1.06428283       1.70162962      -0.00008979
8
Lattice="5.462320975276142 0.0 0.0 0.0 5.407119893119721 -2.84050377153199e-16 0.0 2.884801079109539e-16 5.614830199949865" Properties=species:S:1:pos:R:3 unique_starting_index=2 config_type=initial n_minim_iter=14 stress="-0.000755872298716773 -2.7013068875250437e-16 2.674711190647982e-16 -2.7013068875250437e-16 -0.0001343081822983131 -3.485979483128196e-15 2.674711190647982e-16 -3.485979483128196e-15 -0.0010592854993739867" pbc="T T T"
Si       2.73100600       1.69478994       3.86849460
Si       2.73131497       1.69478994       1.74633560
Si       3.79498125       3.70289442       2.80772301
Si       1.66733972       3.70289442       2.80710719
Si       5.46247546       3.71232995       1.06107950
Si      -0.00015449       3.71232995       4.55375070
Si       4.39850021       1.70422548       5.61513811
Si       1.06382076       1.70422548      -0.00030791
8
Lattice="5.432210236696299 0.0 0.0 0.0 5.419195433422443 -2.8708864357213636e-16 0.0 2.89464287085691e-16 5.680416408145954" Properties=species:S:1:pos:R:3 unique_starting_index=2 config_type=initial n_minim_iter=15 stress="-0.005215204691267633 8.511511667624988e-16 9.422540522259868e-17 8.511511667624988e-16 0.0014826029090580658 4.958997077899246e-16 9.422540522259868e-17 4.958997077899246e-16 -0.000984842654670377" pbc="T T T"
Si       2.71277254       1.64965971       3.89937913
Si       2.71943770       1.64965971       1.78103728
Si       3.77974248       3.64204608       2.83996756
Si       1.65246775       3.64204608       2.84044885
Si       5.43554281       3.76953573       1.05917092
Si      -0.00333258       3.76953573       4.62124548
Si       4.36857287       1.77714935       5.68017577
Si       1.06363737       1.77714935       0.00024064
8
Lattice="5.429082783846664 0.0 0.0 0.0 5.420453485313273 -2.8946054308023473e-16 0.0 2.874660229097982e-16 5.687264511771159" Properties=species:S:1:pos:R:3 unique_starting_index=2 config_type=initial n_minim_iter=16 stress="-0.004917021954680797 5.273656578675787e-16 -1.158483875390316e-16 5.273656578675787e-16 0.0020549833275595166 2.0994501466924046e-15 -1.158483875390316e-16 2.0994501466924046e-15 -0.000561239533587184" pbc="T T T"
Si       2.71087360       1.64481927       3.90259228
Si       2.71820918       1.64481927       1.78467223
Si       3.77815465       3.63556142       2.84333382
Si       1.65092814       3.63556142       2.84393069
Si       5.43275058       3.77563422       1.05896003
Si      -0.00366779       3.77563422       4.62830449
Si       4.36546953       1.78489206       5.68696608
Si       1.06361325       1.78489206       0.00029843
8
Lattice="5.3911145793835145 0.0 0.0 0.0 5.3993588711213585 -2.926161012489481e-16 0.0 2.8648985096241555e-16 5.74918972312904" Properties=species:S:1:pos:R:3 unique_starting_index=2 config_type=initial n_minim_iter=17 stress="-0.004594211984145408 1.2591545557093158e-15 4.990388046960155e-16 1.2591545557093158e-15 0.0009626194811887005 2.1270623257339273e-16 4.990388046960155e-16 2.1270623257339273e-16 0.01152764614146096" pbc="T T T"
Si       2.69196409       1.59671486       3.93314574
Si       2.69915049       1.59671486       1.81604398
Si       3.75849198       3.59530463       2.87194360
Si       1.63262260       3.59530463       2.87724613
Si       5.39470778       3.80264401       1.05855088
Si      -0.00359320       3.80264401       4.69063884
Si       4.32817989       1.80405424       5.74653846
Si       1.06293469       1.80405424       0.00265127
8
Lattice="5.341474229549436 0.0 0.0 0.0 5.386151938579297 -2.9792036352171297e-16 0.0 2.7709944547435375e-16 5.688623700436774" Properties=species:S:1:pos:R:3 unique_starting_index=2 config_type=initial n_minim_iter=18 stress="-0.03200173225732187 -9.090087926136327e-17 2.2553508732780873e-16 -9.090087926136327e-17 0.0029687451049986453 -3.11793407690329e-16 2.2553508732780873e-16 -3.11793407690329e-16 0.044535920500466224" pbc="T T T"
Si       2.66563520       1.45451493       3.90600937
Si       2.67583903       1.45451493       1.78261433
Si       3.72380772       3.48367906       2.83855687
Si       1.61766651       3.48367906       2.85006683
Si       5.34657615       3.93163701       1.06169752
Si      -0.00510192       3.93163701       4.62692618
Si       4.28840363       1.90247288       5.68286872
Si       1.05307060       1.90247288       0.00575498
8
Lattice="5.328392469441034 0.0 0.0 0.0 5.377276478646581 -2.984236315888088e-16 0.0 2.742074311243699e-16 5.653531586396213" Properties=species:S:1:pos:R:3 unique_starting_index=2 config_type=initial n_minim_iter=19 stress="-0.04194171696115012 1.213123737092979e-15 5.027695375091912e-16 1.213123737092979e-15 -0.022302674688776822 1.4731400183131195e-15 5.027695375091912e-16 1.4731400183131195e-15 0.04220546233149654" pbc="T T T"
Si       2.65918929       1.41323050       3.88926304
Si       2.66920318       1.41323050       1.76426854
Si       3.71467485       3.45981930       2.82030963
Si       1.61371762       3.45981930       2.83322195
Si       5.33339942       3.96404598       1.06249725
Si      -0.00500695       3.96404598       4.59103433
Si       4.27791386       1.91745718       5.64707543
Si       1.05047861       1.91745718       0.00645616
8
Lattice="5.36317096210764 0.0 0.0 0.0 5.405868476965649 -2.9938236630253973e-16 0.0 2.6434819037602626e-16 5.467671252284209" Properties=species:S:1:pos:R:3 unique_starting_index=2 config_type=initial n_minim_iter=20 stress="-0.08353620121486685 -1.023924869772771e-15 7.482132258995989e-16 -1.023924869772771e-15 -0.020455185171884743 -6.418790308801264e-16 7.482132258995989e-16 -6.418790308801264e-16 0.00921161778490882" pbc="T T T"
Si       2.67961092       1.41118246       3.79949229
Si       2.68356004       1.41118246       1.66817897
Si       3.72833927       3.50532301       2.72759193
Si       1.63483169       3.50532301       2.74007932
Si       5.36514552       3.99468602       1.06565666
Si      -0.00197456       3.99468602       4.40201459
Si       4.31641717       1.90054547       5.46142755
Si       1.04675379       1.90054547       0.00624370
8
Lattice="5.390841450095275 0.0 0.0 0.0 5.453841560185543 -3.0226843919556063e-16 0.0 2.608974947749789e-16 5.415842041893892" Properties=species:S:1:pos:R:3 unique_starting_index=2 config_type=initial n_minim_iter=21 stress="-0.0766884721783725 -2.8698588069167394e-15 7.415087462614418e-16 -2.8698588069167394e-15 0.0038946563045434302 6.143160775192128e-16 7.415087462614418e-16 6.143160775192128e-16 -0.013473093152110012" pbc="T T T"
Si       2.69149710       1.39895736       3.77135999
Si       2.69934435       1.39895736       1.64448205
Si       3.74764926       3.51379552       2.70364793
Si       1.64319219       3.51379552       2.71219411
Si       5.39476508       4.05488420       1.06343897
Si      -0.00392363       4.05488420       4.35240307
Si       4.33861291       1.94004604       5.41156895
Si       1.05222854       1.94004604       0.00427309
