22
Lattice="12.839690818511334 1.0670533471115249 -1.6085026183977478 -0.6580598265053864 9.591644714758925 -2.2550998647671063 -8.59631678986425 -4.855792439142784 10.104176773525086" Properties=species:S:1:pos:R:3 unique_starting_index=18 config_type=initial n_minim_iter=1 energy=-3752.9487886024285 free_energy=-3752.9487886024285 pbc="T T T"
Si       4.26598865       7.77826904      -0.24747522
Si       0.60966208       0.25620478       6.48486575
Si      -5.88288248      -2.77407738       8.40699512
Si       2.29809428      -0.98870716       8.15222938
Si     -11.22047269      -0.80552205      10.65603309
Si       8.70264062       4.94759214      -0.38220645
Si       5.66462267      -0.11911742       1.81463304
Si      -0.04152268       1.50496081       7.35549079
Si       0.77178458      -1.15351014       8.83871085
Si      -1.16763555       0.64675201       4.45645226
Si       4.61814479       0.94571520       2.90660553
Si      -2.18097296       3.40564810       3.11567817
Si      -7.16937950      -2.06701954       5.97880402
Si       2.55062942       8.45843395      -0.18997276
Si       9.80831637       3.06083482       1.30204842
Si       6.78617149       6.74763200      -4.76940454
Si       1.16089093      -2.08940145       0.55469497
Si       5.30115385      -2.00199514       5.95263096
Si       4.61373384       3.68099863       2.61470258
Si      -0.31027478       2.05341821       4.65637611
Si      -1.53208725       2.16743863       2.22773116
Si      -0.89692339       0.09585790       7.15421659
22
Lattice="12.839491744143812 1.0671471421241845 -1.6087301497642812 -0.6579551912334155 9.59168560948771 -2.255197244675119 -8.596346691317695 -4.855937879815803 10.104490134258455" Properties=species:S:1:pos:R:3 unique_starting_index=18 config_type=initial n_minim_iter=2 stress="-9.5934505025938e-06 2.7701010182457086e-06 -5.450188067432127e-06 2.7701010182457086e-06 -6.482123997031186e-07 3.1526850574619115e-07 -5.450188067432127e-06 3.1526850574619115e-07 -1.6971917031738303e-06" pbc="T T T"
Si       4.26596162       7.77831834      -0.24760395
Si       0.60955214       0.25615735       6.48494412
Si      -5.88292320      -2.77418600       8.40722621
Si       2.29792093      -0.98875887       8.15231479
Si     -11.22043925      -0.80567703      10.65636710
Si       8.70251936       4.94766303      -0.38238690
Si       5.66449351      -0.11909624       1.81457284
Si      -0.04162670       1.50490670       7.35558246
Si       0.77162871      -1.15357816       8.83883368
Si      -1.16767983       0.64671315       4.45652586
Si       4.61802451       0.94572505       2.90657071
Si      -2.18096082       3.40562321       3.11572783
Si      -7.16935588      -2.06711512       5.97901502
Si       2.55063942       8.45847269      -0.19008082
Si       9.80814136       3.06089101       1.30189790
Si       6.78616603       6.74772761      -4.76962737
Si       1.16085090      -2.08940434       0.55470274
Si       5.30095689      -2.00201548       5.95265128
Si       4.61363403       3.68101687       2.61464090
Si      -0.31032877       2.05338667       4.65642826
Si      -1.53208284       2.16741727       2.22776725
Si      -0.89701430       0.09579301       7.15433488
22
Lattice="12.839519460895515 1.0671434373153588 -1.608729648604287 -0.6579628470472517 9.591696231530959 -2.2552171758451425 -8.596358349577017 -4.855950598797884 10.104522430201309" Properties=species:S:1:pos:R:3 unique_starting_index=18 config_type=initial n_minim_iter=3 stress="3.11362873341597e-05 -9.32520367699489e-06 1.747734163429776e-05 -9.32520367699489e-06 3.695287101920236e-05 -2.0284217901537008e-05 1.747734163429776e-05 -2.0284217901537008e-05 7.43414534914817e-05" pbc="T T T"
Si       4.26596624       7.77832138      -0.24761119
Si       0.60955509       0.25614677       6.48496226
Si      -5.88293051      -2.77419468       8.40725253
Si       2.29792993      -0.98877111       8.15233991
Si     -11.22045650      -0.80568776      10.65640282
Si       8.70253329       4.94766502      -0.38239555
Si       5.66450842      -0.11910025       1.81458134
Si      -0.04162508       1.50489805       7.35560024
Si       0.77163613      -1.15359221       8.83886157
Si      -1.16768247       0.64670931       4.45653187
Si       4.61803796       0.94572239       2.90658330
Si      -2.18096620       3.40562579       3.11572974
Si      -7.16936950      -2.06712022       5.97903303
Si       2.55064132       8.45847540      -0.19009125
Si       9.80816440       3.06088592       1.30190600
Si       6.78617668       6.74773488      -4.76964708
Si       1.16085722      -2.08940709       0.55470924
Si       5.30097407      -2.00202771       5.95267427
Si       4.61364464       3.68101421       2.61464708
Si      -0.31032790       2.05338303       4.65643859
Si      -1.53208860       2.16741473       2.22776946
Si      -0.89701186       0.09578028       7.15435687
22
Lattice="12.83955890258443 1.0671379958895515 -1.608747840782747 -0.6579615433092129 9.59164527599426 -2.25521749331287 -8.596401185179866 -4.855934571388301 10.104499771867042" Properties=species:S:1:pos:R:3 unique_starting_index=18 config_type=initial n_minim_iter=4 stress="3.598955496741123e-06 2.5828032540295956e-06 -4.032475169874309e-06 2.5828032540295956e-06 1.352023460887306e-05 7.255967907522021e-06 -4.032475169874309e-06 7.255967907522021e-06 -2.6713008122575456e-06" pbc="T T T"
Si       4.26597366       7.77827281      -0.24761897
Si       0.60953544       0.25612871       6.48492627
Si      -5.88296185      -2.77418044       8.40723222
Si       2.29791576      -0.98877236       8.15229173
Si     -11.22049800      -0.80570391      10.65642036
Si       8.70254330       4.94764792      -0.38244387
Si       5.66452637      -0.11909513       1.81456255
Si      -0.04164593       1.50487996       7.35555454
Si       0.77162443      -1.15360061       8.83881978
Si      -1.16770389       0.64670616       4.45648444
Si       4.61805539       0.94572775       2.90657434
Si      -2.18098001       3.40561732       3.11570699
Si      -7.16940894      -2.06711136       5.97902803
Si       2.55065106       8.45841475      -0.19010481
Si       9.80819842       3.06086391       1.30189346
Si       6.78621138       6.74769841      -4.76964726
Si       1.16087140      -2.08939527       0.55471439
Si       5.30098322      -2.00202419       5.95263871
Si       4.61365598       3.68099218       2.61462667
Si      -0.31033759       2.05336971       4.65641279
Si      -1.53210967       2.16739050       2.22775662
Si      -0.89702342       0.09575312       7.15433187
