22
Lattice="11.29419949173208 1.6999047502907492 -0.3757826578173768 -0.16099868654293745 11.209914724924168 -1.647075572236781 -6.903607438991542 -5.490880701038276 8.76798787915688" Properties=species:S:1:pos:R:3 unique_starting_index=18 config_type=initial n_minim_iter=1 energy=-3668.6841763804287 free_energy=-3668.6841763804287 pbc="T T T"
Si       4.50507915      10.30008086       0.52620959
Si       2.16976418       1.00869429       6.57550117
Si      -5.56330038      -4.72787875       7.71019014
Si       1.98933942      -0.78891142       6.96045009
Si      -8.27482027      -1.60257531       8.43760524
Si       8.76383671       5.98933907       0.46854536
Si       5.63292590       0.45021243       1.22878388
Si       0.68531171       1.44754204       7.19204868
Si       1.52593656      -1.04299291       8.65502781
Si      -0.14422069       2.27767935       4.84464589
Si       4.79750044       1.21554869       2.89221355
Si      -1.46401635       4.50212652       3.55942219
Si      -5.60102046      -2.51370149       4.82458618
Si       2.71647179       9.93033994      -0.13722921
Si       8.75490460       4.74778250       3.00743993
Si       5.46563429       8.34795227      -3.03776992
Si      -0.92256792      -1.95379730       2.26981360
Si       6.00159541      -1.89449357       5.90147842
Si       4.53081222       3.64437421       2.65113093
Si      -0.14003285       3.86378734       5.80759736
Si      -1.01073334       3.21309894       2.58797781
Si       0.70793443       0.12549756       6.15513656
22
Lattice="11.335666792889004 1.726309941469989 -0.33917548099882233 -0.15903872811157593 11.304502547892175 -1.7697595802030108 -6.8916164230206265 -5.63178029001617 8.784496056150717" Properties=species:S:1:pos:R:3 unique_starting_index=18 config_type=initial n_minim_iter=2 stress="0.03704902681600071 -0.006765729211918596 0.0351220355095163 -0.006765729211918596 0.010140201247178458 -0.0260350104304516 0.0351220355095163 -0.0260350104304516 0.07782573260431612" pbc="T T T"
Si       4.53305781      10.36867135       0.43293520
Si       2.21183642       0.94589756       6.56319254
Si      -5.55052087      -4.85086350       7.72589756
Si       2.03000689      -0.86852733       6.97000212
Si      -8.26717953      -1.71600563       8.40944152
Si       8.80633212       6.02980400       0.44770124
Si       5.65953136       0.44523057       1.25095518
Si       0.71803057       1.38204631       7.16434465
Si       1.57586572      -1.14028309       8.66605640
Si      -0.11801440       2.24059119       4.81392268
Si       4.83105787       1.19593337       2.89827817
Si      -1.45118328       4.49164247       3.49435398
Si      -5.60079107      -2.58899460       4.81855773
Si       2.73583476      10.00232035      -0.23304715
Si       8.80975898       4.75759710       2.99100229
Si       5.47254190       8.43694731      -3.09596890
Si      -0.91666286      -1.99328352       2.28379793
Si       6.05053722      -1.96703354       5.94481743
Si       4.56304330       3.64458469       2.62991349
Si      -0.10114685       3.82733325       5.75629114
Si      -0.99977365       3.20406011       2.54480428
Si       0.74104166       0.05838606       6.15244031
22
Lattice="11.298307841259298 1.7640911652517415 -0.3674665783217194 -0.12811865491188268 11.370501819917015 -1.8089488905627833 -6.897869508356148 -5.728595646236122 8.684428046573725" Properties=species:S:1:pos:R:3 unique_starting_index=18 config_type=initial n_minim_iter=3 stress="0.001874092053623972 0.030839034667097632 0.015030703313759806 0.030839034667097632 -0.0459872595678385 -0.027482434379187546 0.015030703313759806 -0.027482434379187546 -0.053189112176681944" pbc="T T T"
Si       4.53803080      10.42799284       0.35118082
Si       2.19368943       0.91805292       6.43550716
Si      -5.55709949      -4.93462845       7.63568104
Si       2.00578492      -0.90748631       6.85209760
Si      -8.26034203      -1.79715044       8.30147433
Si       8.78966556       6.07315325       0.39023573
Si       5.63577428       0.45384298       1.21755238
Si       0.69382749       1.35454336       7.02363371
Si       1.55434647      -1.18719321       8.52685510
Si      -0.12032803       2.22401501       4.71996695
Si       4.81086730       1.19539241       2.83126163
Si      -1.44882305       4.48948600       3.40491987
Si      -5.59663087      -2.64329307       4.76327440
Si       2.75085542      10.05984057      -0.29531110
Si       8.78833158       4.78882909       2.88760364
Si       5.47049419       8.50109748      -3.09948710
Si      -0.92264078      -2.01941769       2.25853253
Si       6.01045780      -1.99775391       5.84413432
Si       4.54759533       3.65841965       2.55387351
Si      -0.09422794       3.81123639       5.63372287
Si      -0.99537619       3.19830813       2.48427092
Si       0.72607227       0.02204793       6.04976946
22
Lattice="11.243022993476467 1.7358897630481651 -0.43021468932258444 -0.1746360127814784 11.561592210286216 -1.800053355445728 -6.890408918304422 -5.78704740893892 8.680591303433852" Properties=species:S:1:pos:R:3 unique_starting_index=18 config_type=initial n_minim_iter=4 stress="0.03400263605658724 0.008628792806754396 -0.021253693128826946 0.008628792806754396 0.03928772225467499 0.02342223761957159 -0.021253693128826946 0.02342223761957159 -0.03843406320497196" pbc="T T T"
Si       4.46098222      10.58001310       0.32060310
Si       2.14421317       0.92596577       6.38112222
Si      -5.55221999      -4.98750867       7.62838281
Si       1.96173061      -0.92752345       6.80409344
Si      -8.26535070      -1.78762301       8.31547397
Si       8.71938558       6.12724823       0.34741829
Si       5.60027130       0.43345019       1.18285236
Si       0.62927665       1.38877300       6.97479536
Si       1.51125404      -1.20392712       8.48088062
Si      -0.15456655       2.26494306       4.69667197
Si       4.76906806       1.19069185       2.78879913
Si      -1.49584934       4.57622219       3.39000893
Si      -5.58782498      -2.65656403       4.77003600
Si       2.69147574      10.21486519      -0.30900608
Si       8.71954575       4.83219807       2.81427940
Si       5.41277162       8.60451782      -3.10334304
Si      -0.92150884      -2.04882786       2.25153374
Si       5.95972497      -2.06039783       5.78147986
Si       4.49204017       3.69820146       2.51545840
Si      -0.13559408       3.87302031       5.60300605
Si      -1.02305590       3.24778908       2.47563279
Si       0.68815135       0.01479623       6.01805160
22
Lattice="11.056725100303483 1.6708546424150943 -0.4426388302699438 -0.23314747149712167 11.541208224822562 -1.8450527171770479 -6.755930374902028 -5.7670488176268195 8.729902531116501" Properties=species:S:1:pos:R:3 unique_starting_index=18 config_type=initial n_minim_iter=5 stress="-0.02030772473638485 -0.010135392296723472 0.003734252371082341 -0.010135392296723472 0.0032382804649220684 0.0012176777777904034 0.003734252371082341 0.0012176777777904034 -0.03594063725585878" pbc="T T T"
Si       4.33117091      10.52843925       0.28080388
Si       2.10128933       0.88989740       6.38790258
Si      -5.44130891      -4.97357078       7.66979011
Si       1.93176500      -0.95613190       6.82440867
Si      -8.13006581      -1.77362301       8.35817333
Si       8.54513244       6.06329248       0.32975310
Si       5.50697135       0.39709101       1.18630751
Si       0.60010080       1.36415281       6.98442905
Si       1.49648627      -1.23195344       8.51579413
Si      -0.16489780       2.24527954       4.70280885
Si       4.68734503       1.15033351       2.79030633
Si      -1.50810507       4.56089982       3.37968981
Si      -5.48885237      -2.63570025       4.79504969
Si       2.59571447      10.17637929      -0.34497355
Si       8.56460403       4.76867657       2.79368666
Si       5.27997811       8.55726734      -3.13230913
Si      -0.89711725      -2.04802003       2.26477190
Si       5.87263315      -2.11007308       5.80425688
Si       4.39719599       3.65553704       2.50911083
Si      -0.15136096       3.83425933       5.60394865
Si      -1.02720912       3.22758818       2.47207910
Si       0.67401371      -0.01474989       6.03886860
22
Lattice="11.032722939893269 1.7808839472505584 -0.5959263971360167 -0.08886381208279412 11.440545432517602 -1.9283678276653784 -6.895106533158298 -5.839727001815609 8.961553815234886" Properties=species:S:1:pos:R:3 unique_starting_index=18 config_type=initial n_minim_iter=6 stress="0.004852969019454391 0.006538988144443162 -0.04419996300429709 0.006538988144443162 -0.04092638635107433 -0.004795666756967245 -0.04419996300429709 -0.004795666756967245 -0.009726003844313474" pbc="T T T"
Si       4.41536111      10.47593450       0.16778324
Si       2.02041018       0.87163603       6.42081776
Si      -5.56099039      -5.03438643       7.86188577
Si       1.82968827      -0.94732668       6.88983551
Si      -8.21230706      -1.91198944       8.59941042
Si       8.55126445       6.12763952       0.20440249
Si       5.46737489       0.44787264       1.14257303
Si       0.51615903       1.32330432       7.05391593
Si       1.38983696      -1.24554083       8.62784875
Si      -0.19612793       2.20186229       4.75316451
Si       4.64964816       1.17400363       2.76066742
Si      -1.51506562       4.47222554       3.40228395
Si      -5.55347923      -2.69761474       4.93940638
Si       2.69757544      10.11116004      -0.43387109
Si       8.55265810       4.81900211       2.68260700
Si       5.37963369       8.53161378      -3.25184535
Si      -0.94170155      -2.05403339       2.31438800
Si       5.75178454      -2.05905813       5.82162235
Si       4.37836364       3.65615422       2.47059397
Si      -0.16299250       3.73501642       5.65086308
Si      -1.00580644       3.15505156       2.49574420
Si       0.59535744      -0.04495405       6.12136986
22
Lattice="10.932633259602774 1.9210778819198229 -0.5060180838671237 0.02502124369516369 11.536169703843765 -1.9038799519452418 -6.818526053975505 -5.946952712116765 8.890063083048961" Properties=species:S:1:pos:R:3 unique_starting_index=18 config_type=initial n_minim_iter=7 stress="-0.07670711540768493 0.03787644329566056 -0.015433627287484026 0.03787644329566056 0.0029028774071800196 0.02479812495951894 -0.015433627287484026 0.02479812495951894 -0.03574104352979012" pbc="T T T"
Si       4.48484990      10.62116793       0.21728770
Si       2.05269255       0.92438015       6.41529638
Si      -5.49358039      -5.12317300       7.79690478
Si       1.85407693      -0.89542565       6.89334882
Si      -8.08041165      -2.01546981       8.55271863
Si       8.51859137       6.31825436       0.28345502
Si       5.41740999       0.51719700       1.19862324
Si       0.57796400       1.36388921       7.05681646
Si       1.44673098      -1.21406036       8.63865737
Si      -0.13361128       2.23976683       4.75161076
Si       4.64086033       1.24348158       2.79535747
Si      -1.44224740       4.49163542       3.38055135
Si      -5.48834017      -2.76944258       4.88554509
Si       2.78023863      10.23034549      -0.38888417
Si       8.54674897       4.98556433       2.73918769
Si       5.39208740       8.63990467      -3.15875359
Si      -0.93550400      -2.07915416       2.29815922
Si       5.71083725      -1.99633618       5.86110167
Si       4.38453261       3.74634958       2.51356347
Si      -0.06242104       3.74843381       5.64294320
Si      -0.92495374       3.16233495       2.48773834
Si       0.63438795      -0.02799440       6.13124916
22
Lattice="11.051648287843628 1.8455792006253227 -0.41763096386775017 -0.05907678845413939 11.507418730127004 -1.870931545141758 -6.801483329609921 -5.877460253815252 8.73762410122975" Properties=species:S:1:pos:R:3 unique_starting_index=18 config_type=initial n_minim_iter=8 stress="-0.03688962564868981 0.006879826705351297 -0.016572325398994264 0.006879826705351297 -0.01726580164893736 0.023206769188756856 -0.016572325398994264 0.023206769188756856 -0.057807756500090214" pbc="T T T"
Si       4.47441692      10.57102233       0.25280036
Si       2.11397050       0.92195396       6.34320888
Si      -5.46832205      -5.06637357       7.65942262
Si       1.93552199      -0.87462039       6.83064105
Si      -8.10593152      -1.96337253       8.42978102
Si       8.57390353       6.27536055       0.34355222
Si       5.48228971       0.48235677       1.24034189
Si       0.62693058       1.36845760       6.99510676
Si       1.55605711      -1.19265476       8.56536980
Si      -0.11690714       2.24781068       4.69958555
Si       4.71639198       1.21361372       2.79915685
Si      -1.48279178       4.48114670       3.32210254
Si      -5.50474340      -2.71882216       4.78799867
Si       2.74911733      10.18810375      -0.35082591
Si       8.64418502       4.94366418       2.76211983
Si       5.38319717       8.56712724      -3.04800485
Si      -0.91632151      -2.06787059       2.26079509
Si       5.83192400      -2.02004906       5.84082060
Si       4.42493910       3.71472284       2.52572557
Si      -0.03742885       3.71118553       5.57258229
Si      -0.91572394       3.15142858       2.44572631
Si       0.68191326      -0.02608523       6.07823918
22
Lattice="11.128175383933183 1.954238340817137 -0.39014212981563345 0.030597256885806553 11.599373275030032 -1.8479188323155085 -6.867509815378049 -5.96446467348215 8.711838221674125" Properties=species:S:1:pos:R:3 unique_starting_index=18 config_type=initial n_minim_iter=9 stress="-0.03559037370217681 0.02182204622215111 -0.012309067920713145 0.02182204622215111 -0.016290858486371386 0.016667938753248627 -0.012309067920713145 0.016667938753248627 -0.05812857043125002" pbc="T T T"
Si       4.58402079      10.70087810       0.27857346
Si       2.13658774       0.97148295       6.33160559
Si      -5.51752399      -5.13976970       7.63059786
Si       1.95979751      -0.83039594       6.83232771
Si      -8.14393001      -2.04502582       8.43995034
Si       8.67044614       6.40109017       0.37394925
Si       5.51449387       0.53524602       1.26415572
Si       0.66502875       1.39941339       7.00909467
Si       1.59533381      -1.13975316       8.58129965
Si      -0.09608517       2.27770292       4.70388199
Si       4.76408035       1.27107825       2.81326764
Si      -1.45149165       4.50572057       3.31916040
Si      -5.54810828      -2.77570807       4.77029253
Si       2.84702737      10.29548936      -0.32238202
Si       8.74288910       5.06993668       2.77987288
Si       5.48212607       8.67288458      -3.00305818
Si      -0.93161915      -2.09014061       2.25114658
Si       5.85800131      -1.97141281       5.85052294
Si       4.47680538       3.79089146       2.54563682
Si       0.00310791       3.71902138       5.56283830
Si      -0.88292161       3.17821628       2.43067472
Si       0.69409099      -0.00625786       6.08783469
22
Lattice="11.246071082188848 1.990493494836471 -0.35387899899244624 0.04108318145099064 11.73535390914155 -1.7897037073297102 -6.92558752957735 -6.00348022999066 8.63934853657214" Properties=species:S:1:pos:R:3 unique_starting_index=18 config_type=initial n_minim_iter=10 stress="-0.022019644826170876 0.006380814815005695 -0.017326263787058798 0.006380814815005695 -0.015296055140209494 0.01962460092315565 -0.017326263787058798 0.01962460092315565 -0.06622598412711632" pbc="T T T"
Si       4.64146299      10.84467539       0.32971173
Si       2.16058711       1.02730198       6.29893319
Si      -5.55602637      -5.17576325       7.55875921
Si       2.00730519      -0.78189960       6.81251195
Si      -8.19745667      -2.05700486       8.40973803
Si       8.76404323       6.50321177       0.43290326
Si       5.57009445       0.55290225       1.28645212
Si       0.69704915       1.44093141       6.99369995
Si       1.65178075      -1.08089481       8.56466513
Si      -0.09808677       2.31733796       4.69347565
Si       4.82724316       1.31011542       2.82455224
Si      -1.45391072       4.55142245       3.31439387
Si      -5.59928522      -2.79170925       4.72777946
Si       2.88865084      10.42489418      -0.26597233
Si       8.86805753       5.16424867       2.80334217
Si       5.54878053       8.77127133      -2.93109829
Si      -0.93730595      -2.10938871       2.22693118
Si       5.92586178      -1.95518106       5.83537110
Si       4.52145884       3.85823091       2.56764368
Si       0.01470386       3.76051461       5.53849790
Si      -0.88757412       3.24113708       2.42350059
Si       0.70585479       0.04315913       6.08342020
22
Lattice="11.499735290689287 2.151454321717388 -0.23597909056718028 0.1404173480731854 12.044881849736495 -1.580166547372025 -7.060742025100179 -6.067856100950637 8.54720794402096" Properties=species:S:1:pos:R:3 unique_starting_index=18 config_type=initial n_minim_iter=11 stress="0.002925152127172313 -0.005600682066003353 -0.010741744200471083 -0.005600682066003353 -0.048053563932847966 0.012268739720640404 -0.010741744200471083 0.012268739720640404 -0.03628794005098183" pbc="T T T"
Si       4.82318115      11.22017523       0.54643435
Si       2.21753137       1.23458333       6.29890484
Si      -5.63511360      -5.24213059       7.44688412
Si       2.13988172      -0.54746458       6.88923446
Si      -8.30569734      -2.06825502       8.49060163
Si       9.02671748       6.82496972       0.61803704
Si       5.68680911       0.63635826       1.38153546
Si       0.76397535       1.62647949       7.07305294
Si       1.80341175      -0.81842813       8.67019179
Si      -0.10242509       2.38750155       4.74603405
Si       4.97949627       1.47616547       2.92888569
Si      -1.40045767       4.66255345       3.41210397
Si      -5.70997673      -2.82677000       4.66888601
Si       3.05086512      10.75001236      -0.03552350
Si       9.18947040       5.44492158       2.99899836
Si       5.74842656       9.02542924      -2.73066252
Si      -0.96098979      -2.14959468       2.17829688
Si       6.06131458      -1.81808718       5.88827276
Si       4.62188328       4.07192330       2.70726090
Si       0.06468164       3.89786284       5.58623426
Si      -0.83521984       3.39775401       2.48534773
Si       0.74404012       0.24444691       6.19985804
22
Lattice="11.547181092688234 2.1810463411232544 -0.2594232712677429 0.1495642482951568 12.192442621852475 -1.6029282851077464 -7.107794180413953 -6.163874317983708 8.549745262361672" Properties=species:S:1:pos:R:3 unique_starting_index=18 config_type=initial n_minim_iter=12 stress="0.005728505506889243 -0.017497838107795823 -0.012347778961260185 -0.017497838107795823 -0.032347244217404876 0.005954996265682479 -0.012347778961260185 0.005954996265682479 -0.03295432787119357" pbc="T T T"
Si       4.83858491      11.35409945       0.50282992
Si       2.18952880       1.24398721       6.24650056
Si      -5.66437001      -5.33192006       7.43623667
Si       2.15406732      -0.53585838       6.88036430
Si      -8.34651849      -2.13245117       8.51164757
Si       9.06612540       6.92328696       0.58950496
Si       5.70247088       0.63677022       1.37680723
Si       0.75805564       1.63898280       7.05603320
Si       1.80922260      -0.81883261       8.65692104
Si      -0.12968423       2.37304725       4.72175272
Si       4.99950836       1.49580473       2.91575048
Si      -1.40353621       4.68529290       3.39145940
Si      -5.74375356      -2.87341464       4.66944301
Si       3.07002897      10.87730514      -0.05975877
Si       9.24060033       5.49334190       2.96729560
Si       5.78546772       9.14208069      -2.75365991
Si      -0.97164318      -2.18668783       2.17196351
Si       6.06847173      -1.84759687       5.86480929
Si       4.61926024       4.11500900       2.68651574
Si       0.04701033       3.90126883       5.53609179
Si      -0.83160451       3.43788108       2.47292637
Si       0.72516841       0.23879343       6.19380748
22
Lattice="11.642197117033202 2.2135410612301523 -0.22136731716795252 0.16890846641148852 12.237239348165796 -1.5807264293577983 -7.150075775681439 -6.187847250656012 8.502950515965985" Properties=species:S:1:pos:R:3 unique_starting_index=18 config_type=initial n_minim_iter=13 stress="0.0206204341906126 -0.018834426110242063 -0.006711230155802574 -0.018834426110242063 -0.02265150110706216 0.003664721025227928 -0.006711230155802574 0.003664721025227928 -0.02940548966103101" pbc="T T T"
Si       4.89335919      11.41106498       0.52571770
Si       2.19612328       1.27190960       6.22085783
Si      -5.68719357      -5.35800864       7.38493058
Si       2.21223287      -0.48616249       6.88776025
Si      -8.38305316      -2.14757997       8.47952707
Si       9.16046604       6.98041767       0.63583859
Si       5.74845029       0.64784249       1.40130183
Si       0.79679946       1.66284731       7.05125020
Si       1.85423837      -0.77726906       8.65140979
Si      -0.12483466       2.36218853       4.71661116
Si       5.05521977       1.52493668       2.93276191
Si      -1.39283689       4.70350654       3.39519793
Si      -5.78116164      -2.88909491       4.63571804
Si       3.11604428      10.92383902      -0.02926866
Si       9.35003113       5.52615042       2.99357644
Si       5.83794711       9.18224738      -2.72160763
Si      -0.97934545      -2.19940038       2.15480555
Si       6.12568334      -1.82684239       5.86725418
Si       4.65451405       4.14474982       2.70418230
Si       0.06941757       3.90016320       5.50425684
Si      -0.81373361       3.44366776       2.46805195
Si       0.73883025       0.26518542       6.19958688
22
Lattice="11.762317757123384 2.2727535272000576 -0.18319245271038578 0.22678027280209506 12.204739718656313 -1.5359694156582566 -7.224911414389115 -6.1752369480043345 8.492053959446938" Properties=species:S:1:pos:R:3 unique_starting_index=18 config_type=initial n_minim_iter=14 stress="0.030941693833511887 -0.01612611708130369 0.002422404596069587 -0.01612611708130369 -0.028760548837016654 0.010410422353830329 0.002422404596069587 0.010410422353830329 -0.007341179951868842" pbc="T T T"
Si       4.99154651      11.41994043       0.58070596
Si       2.21218670       1.31399908       6.23515403
Si      -5.73684624      -5.35081189       7.36381914
Si       2.27204775      -0.40638122       6.93361224
Si      -8.44573218      -2.14232103       8.48931866
Si       9.30265393       7.02446439       0.70112206
Si       5.80511087       0.67881962       1.43321317
Si       0.83538579       1.70852562       7.10100594
Si       1.89072316      -0.70479597       8.69090640
Si      -0.11153600       2.35313528       4.74788097
Si       5.12268547       1.57044321       2.96884773
Si      -1.37553172       4.68472664       3.42951631
Si      -5.83754977      -2.89507550       4.62279094
Si       3.20017086      10.91543830       0.02825999
Si       9.49514648       5.57721564       3.04673628
Si       5.92701454       9.17846779      -2.68622404
Si      -0.99612944      -2.19625313       2.14458761
Si       6.18483077      -1.75677342       5.89663306
Si       4.70898815       4.17331107       2.74632467
Si       0.10519831       3.89053472       5.51258154
Si      -0.79091615       3.43992598       2.48836691
Si       0.75137093       0.30074804       6.24092940
22
Lattice="11.7873726263369 2.2986053003505327 -0.2892462349011317 0.24295048498161045 12.347179992815237 -1.6309085084111514 -7.310290670509853 -6.31102692189161 8.624247094980817" Properties=species:S:1:pos:R:3 unique_starting_index=18 config_type=initial n_minim_iter=15 stress="0.027985441195174876 -0.03563258634555622 0.011686830137135357 -0.03563258634555622 -0.01732793396093874 -0.02728672929034326 0.011686830137135357 -0.02728672929034326 0.029585330524105242" pbc="T T T"
Si       4.98786919      11.54638416       0.45409700
Si       2.11899679       1.27992642       6.19961785
Si      -5.79005987      -5.48155592       7.44984251
Si       2.25930194      -0.40742304       6.97229539
Si      -8.53673324      -2.20773753       8.60852757
Si       9.36513193       7.11372195       0.60118561
Si       5.79669721       0.66334911       1.40719578
Si       0.77670808       1.67288537       7.13798050
Si       1.81761175      -0.75986625       8.71833080
Si      -0.16202212       2.30480670       4.76081613
Si       5.11623041       1.57284495       2.93945694
Si      -1.40805585       4.68188959       3.43071020
Si      -5.88753197      -2.96721440       4.69555799
Si       3.21067150      11.02700229      -0.06456645
Si       9.51631446       5.59742430       2.93622777
Si       5.96520438       9.29580767      -2.82305292
Si      -1.02078104      -2.24813227       2.16342574
Si       6.13734773      -1.81439879       5.88266620
Si       4.66611763       4.19371898       2.69646218
Si       0.05658037       3.82611705       5.44788769
Si      -0.79628724       3.45325201       2.47221851
Si       0.68411678       0.26473485       6.30129014
22
Lattice="11.83282339042474 2.310569968382389 -0.3029684430793386 0.24875119372362625 12.396516375085604 -1.63097609164423 -7.350113594958964 -6.337286775185169 8.638562950960265" Properties=species:S:1:pos:R:3 unique_starting_index=18 config_type=initial n_minim_iter=16 stress="0.04428252527044459 -0.02640017595158686 0.01645678664702372 -0.02640017595158686 -0.002178489254713375 -0.03360282670272975 0.01645678664702372 -0.03360282670272975 0.04247125476627456" pbc="T T T"
Si       5.00268343      11.60153445       0.44715767
Si       2.09845648       1.28363082       6.19329290
Si      -5.81173380      -5.51045759       7.44774149
Si       2.27678480      -0.38095749       6.98463399
Si      -8.58039993      -2.19922548       8.61758511
Si       9.41307620       7.15364696       0.59661984
Si       5.81293408       0.66234663       1.41097457
Si       0.76558141       1.68724606       7.15695869
Si       1.81174206      -0.73899952       8.72426472
Si      -0.17216518       2.30233146       4.76531861
Si       5.13607908       1.58415970       2.93931941
Si      -1.40789019       4.69289454       3.44005807
Si      -5.91524002      -2.98297018       4.69888966
Si       3.22591830      11.06960748      -0.06166150
Si       9.55623921       5.60138390       2.91604701
Si       5.99557768       9.32838983      -2.84019235
Si      -1.03041235      -2.26270210       2.15933727
Si       6.14662738      -1.81527412       5.87902860
Si       4.66668152       4.21127472       2.69592913
Si       0.05663086       3.81155102       5.42459014
Si      -0.79671855       3.46974190       2.48582356
Si       0.67212187       0.26559913       6.33396570
22
Lattice="11.786457279742256 2.3068321223657375 -0.35393218083320166 0.23831980092731517 12.495126034606216 -1.6301572085047118 -7.352703257501192 -6.3706062455171235 8.692700229612374" Properties=species:S:1:pos:R:3 unique_starting_index=18 config_type=initial n_minim_iter=17 stress="0.04577352650400211 -0.023359926860641842 0.007065129136950517 -0.023359926860641842 0.01361112515514664 -0.03438263025427881 0.007065129136950517 -0.03438263025427881 0.05294890296178279" pbc="T T T"
Si       4.95828527      11.69654429       0.43251079
Si       2.02386755       1.29451190       6.20279569
Si      -5.80245633      -5.54824013       7.47483190
Si       2.25340822      -0.35350198       7.00518970
Si      -8.58311727      -2.17304321       8.67053456
Si       9.37273417       7.20257831       0.56464779
Si       5.77945461       0.65307399       1.40239431
Si       0.73119269       1.70752303       7.18852958
Si       1.76570921      -0.71037719       8.74540329
Si      -0.20231391       2.29324463       4.77941064
Si       5.10597436       1.59137274       2.92931955
Si      -1.42509446       4.71533341       3.46409071
Si      -5.90757217      -2.99870798       4.72697383
Si       3.19892428      11.14992934      -0.06263619
Si       9.50201603       5.61621580       2.87560429
Si       5.97686772       9.37753566      -2.88375566
Si      -1.03622558      -2.28415643       2.16109653
Si       6.09165267      -1.83325163       5.86810440
Si       4.61449396       4.23682919       2.68894876
Si       0.04696109       3.82439488       5.41552043
Si      -0.79506806       3.50513339       2.49998034
Si       0.63633542       0.26425800       6.38929964
22
Lattice="11.812680639880854 2.248215164252054 -0.32968873714834374 0.1783762229217513 12.49577727091028 -1.5627349280336749 -7.335218848982572 -6.285259024190564 8.66386809666868" Properties=species:S:1:pos:R:3 unique_starting_index=18 config_type=initial n_minim_iter=18 stress="0.03938411355149529 -0.024532398790219394 0.016199478896185702 -0.024532398790219394 0.009658303933677177 -0.03466501015359972 0.016199478896185702 -0.03466501015359972 0.04687839823569788" pbc="T T T"
Si       4.90480437      11.70239509       0.50727592
Si       1.96455156       1.33921042       6.21977098
Si      -5.76225125      -5.49117533       7.42104859
Si       2.28724871      -0.27003845       7.02848094
Si      -8.57919369      -2.04317520       8.67365992
Si       9.38724610       7.19456756       0.64191218
Si       5.79201873       0.63338413       1.43545715
Si       0.72699620       1.77876805       7.21054559
Si       1.78440097      -0.62384588       8.76297351
Si      -0.21366340       2.28655249       4.80202798
Si       5.12683693       1.59074677       2.94992664
Si      -1.44944781       4.71912427       3.49963820
Si      -5.89945868      -2.95436573       4.69282846
Si       3.15497306      11.13981170       0.01655040
Si       9.50957549       5.56342982       2.90694419
Si       5.96839448       9.31468803      -2.86520048
Si      -1.03229538      -2.27757483       2.13761661
Si       6.11378393      -1.81798199       5.87069183
Si       4.58384204       4.23174077       2.72666861
Si       0.07163178       3.79886863       5.40330102
Si      -0.78950121       3.53919037       2.51549329
Si       0.63939513       0.29399043       6.46232512
22
Lattice="11.845133644295228 2.218063325304981 -0.35820820159275785 0.15276485100222248 12.500452539299586 -1.5229824589447678 -7.368989655991701 -6.238747276617101 8.680346451494287" Properties=species:S:1:pos:R:3 unique_starting_index=18 config_type=initial n_minim_iter=19 stress="0.04414890022548655 -0.01776945026753491 -0.004076329799737084 -0.01776945026753491 0.021737952348708837 -0.017392355032848104 -0.004076329799737084 -0.017392355032848104 0.03539447242984679" pbc="T T T"
Si       4.87372019      11.71569245       0.54110078
Si       1.89731946       1.37180961       6.21403780
Si      -5.76578716      -5.46732136       7.40469713
Si       2.28333212      -0.19459384       7.04867926
Si      -8.61819718      -1.95350348       8.73027020
Si       9.40811155       7.21033582       0.65897132
Si       5.80151387       0.63125567       1.44660667
Si       0.68892402       1.82284277       7.26023500
Si       1.76852692      -0.55772181       8.78184671
Si      -0.25047954       2.25767823       4.80991244
Si       5.13975596       1.59408239       2.94374417
Si      -1.48150371       4.72230270       3.52878680
Si      -5.91608264      -2.93783376       4.68747664
Si       3.13376477      11.13699250       0.06059808
Si       9.52854722       5.52264673       2.87794339
Si       5.99700105       9.26549233      -2.89747998
Si      -1.04332352      -2.27881592       2.12380827
Si       6.10610743      -1.80215543       5.85321497
Si       4.55059243       4.22932707       2.73750786
Si       0.09524942       3.76928484       5.38466584
Si      -0.80351984       3.55382341       2.52882678
Si       0.61290232       0.32214643       6.52910567
22
Lattice="11.902897661395262 2.210285656090179 -0.41676633496748616 0.1470796087386302 12.539712939274672 -1.5161541804703218 -7.443649525732644 -6.242273707045037 8.734347850664763" Properties=species:S:1:pos:R:3 unique_starting_index=18 config_type=initial n_minim_iter=20 stress="0.03717355480078461 -0.00951778443507999 -0.007287898882145358 -0.00951778443507999 0.0312631760142538 -0.015651001086314002 -0.007287898882145358 -0.015651001086314002 0.021039459559467344" pbc="T T T"
Si       4.86477708      11.75834325       0.53991512
Si       1.83018199       1.40652357       6.22820413
Si      -5.80506887      -5.48515628       7.42282277
Si       2.25950915      -0.14181334       7.07358400
Si      -8.70815261      -1.89518652       8.81496276
Si       9.45373849       7.24710720       0.62874386
Si       5.82238796       0.64152502       1.44461513
Si       0.65217010       1.84345122       7.29589354
Si       1.73944500      -0.52389207       8.80921062
Si      -0.27850636       2.21892686       4.79861911
Si       5.15805644       1.59950196       2.92322169
Si      -1.51796499       4.72358240       3.54753869
Si      -5.95641990      -2.95069497       4.70437611
Si       3.13040229      11.16627030       0.07139434
Si       9.56847671       5.50243429       2.82087814
Si       6.04821849       9.27000979      -2.95505563
Si      -1.06418049      -2.29257073       2.12027496
Si       6.09512462      -1.79945678       5.83211202
Si       4.52881872       4.23503049       2.73004449
Si       0.10687723       3.72684338       5.35983467
Si      -0.82559347       3.56080091       2.55279378
Si       0.56165691       0.33013384       6.58192916
22
Lattice="11.904757863641692 2.191262486334366 -0.47640244658112835 0.12958480631615565 12.592089006048582 -1.498146552502199 -7.480830610487397 -6.233010323627551 8.806445736351485" Properties=species:S:1:pos:R:3 unique_starting_index=18 config_type=initial n_minim_iter=21 stress="0.015145280471390198 0.00262800491265061 0.0006766014201832625 0.00262800491265061 0.03033988614888111 -0.02357970482261967 0.0006766014201832625 -0.02357970482261967 0.008888749551307374" pbc="T T T"
Si       4.82335508      11.80977540       0.55704377
Si       1.77499711       1.44476528       6.28298334
Si      -5.81503465      -5.48971425       7.45657316
Si       2.20906352      -0.08730715       7.12157839
Si      -8.76461547      -1.80844598       8.91346227
Si       9.43674474       7.27709847       0.60825616
Si       5.81837812       0.65141833       1.44539487
Si       0.60089810       1.87576787       7.34728846
Si       1.70711517      -0.48168932       8.85934937
Si      -0.32405822       2.19579715       4.82473458
Si       5.15187461       1.60710282       2.90979990
Si      -1.55299996       4.73827711       3.58290532
Si      -5.96613918      -2.95655217       4.73070377
Si       3.09829995      11.20818282       0.09999099
Si       9.55208118       5.48432538       2.78214479
Si       6.08562791       9.25783643      -3.02800463
Si      -1.07961682      -2.30561997       2.11934410
Si       6.05700286      -1.79912188       5.82341092
Si       4.48621770       4.24440384       2.73369783
Si       0.11849852       3.70310168       5.34960049
Si      -0.84346019       3.57330241       2.59023868
Si       0.50641839       0.35455751       6.63151386
