22
Lattice="12.837950663414883 1.067149968811326 -1.6065822385126542 -0.6583239195510618 9.595274716542225 -2.2533969545865364 -8.59395046204849 -4.855979438805123 10.10187041718753" Properties=species:S:1:pos:R:3 unique_starting_index=18 config_type=initial n_minim_iter=1 energy=-3752.948586333864 free_energy=-3752.948586333864 pbc="T T T"
Si       4.26325242       7.78132695      -0.24747430
Si       0.61138780       0.25864584       6.48626445
Si      -5.88080195      -2.77844014       8.40123778
Si       2.29997382      -0.98652828       8.15338896
Si     -11.21653243      -0.80327496      10.65528115
Si       8.70258258       4.95033881      -0.37839966
Si       5.66336422      -0.12016114       1.81344363
Si      -0.03965411       1.50742931       7.35696754
Si       0.77372242      -1.15103718       8.84007227
Si      -1.16604865       0.64922309       4.45803127
Si       4.61710408       0.94499689       2.90521037
Si      -2.17947457       3.40801886       3.11726364
Si      -7.16867414      -2.06954058       5.97466817
Si       2.54826439       8.46217568      -0.18924213
Si       9.80813157       3.06324860       1.30565303
Si       6.78544925       6.75029221      -4.76547577
Si       1.15838216      -2.08753926       0.55300654
Si       5.30005533      -2.00411283       5.95073843
Si       4.61162397       3.68089449       2.61307334
Si      -0.30868300       2.05589104       4.65789717
Si      -1.53058850       2.16986377       2.22926786
Si      -0.89511066       0.09834840       7.15583298
22
Lattice="12.837779170325888 1.0672173322556782 -1.6068301925197763 -0.6582437850967657 9.595349530351879 -2.253527298263378 -8.594002882369248 -4.85615752243306 10.10217858703849" Properties=species:S:1:pos:R:3 unique_starting_index=18 config_type=initial n_minim_iter=2 stress="-3.082752884071896e-05 7.2842440753908e-06 -2.1946862650398935e-05 7.2842440753908e-06 1.40394211832153e-05 -1.3366924231579062e-05 -2.1946862650398935e-05 -1.3366924231579062e-05 1.3886484918889867e-05" pbc="T T T"
Si       4.26321168       7.78138023      -0.24764061
Si       0.61126349       0.25856338       6.48631521
Si      -5.88086180      -2.77857188       8.40145597
Si       2.29979501      -0.98662485       8.15343255
Si     -11.21654581      -0.80344339      10.65559739
Si       8.70246034       4.95040349      -0.37862843
Si       5.66324711      -0.12016080       1.81336548
Si      -0.03977502       1.50734083       7.35702195
Si       0.77355917      -1.15115665       8.84017067
Si      -1.16610728       0.64916939       4.45808475
Si       4.61698942       0.94498976       2.90515805
Si      -2.17948040       3.40799795       3.11729305
Si      -7.16867358      -2.06964660       5.97487941
Si       2.54825888       8.46222273      -0.18939250
Si       9.80796988       3.06328111       1.30545800
Si       6.78545255       6.75039697      -4.76571401
Si       1.15835461      -2.08755259       0.55302246
Si       5.29986773      -2.00417852       5.95073194
Si       4.61151996       3.68089776       2.61297761
Si      -0.30874938       2.05584787       4.65791350
Si      -1.53060494       2.16983325       2.22929152
Si      -0.89521876       0.09825206       7.15591514
22
Lattice="12.838081609762426 1.0671156343021444 -1.6067750047881717 -0.658334918593234 9.595205304864352 -2.253542607017218 -8.594141031247286 -4.856043756318272 10.102113644254121" Properties=species:S:1:pos:R:3 unique_starting_index=18 config_type=initial n_minim_iter=3 stress="7.93703201237109e-05 -3.193146283046187e-05 1.903055837389567e-05 -3.193146283046187e-05 5.2624526366434105e-05 -1.8991261453207684e-05 1.903055837389567e-05 -1.8991261453207684e-05 0.00010060068759185938" pbc="T T T"
Si       4.26325238       7.78120984      -0.24761491
Si       0.61128202       0.25850835       6.48628808
Si      -5.88095063      -2.77847700       8.40140347
Si       2.29988105      -0.98663128       8.15337108
Si     -11.21678997      -0.80337098      10.65555489
Si       8.70259453       4.95029699      -0.37867889
Si       5.66340999      -0.12017986       1.81337586
Si      -0.03975882       1.50728543       7.35698604
Si       0.77364200      -1.15119179       8.84016644
Si      -1.16613519       0.64915570       4.45802708
Si       4.61713203       0.94498083       2.90520602
Si      -2.17953365       3.40797476       3.11727875
Si      -7.16883284      -2.06956898       5.97485154
Si       2.54827723       8.46203819      -0.18940223
Si       9.80819720       3.06317184       1.30546637
Si       6.78558884       6.75022324      -4.76565511
Si       1.15843188      -2.08752761       0.55304937
Si       5.30005072      -2.00419078       5.95072171
Si       4.61162455       3.68080971       2.61298734
Si      -0.30875329       2.05582095       4.65786286
Si      -1.53067959       2.16976616       2.22927903
Si      -0.89522532       0.09821173       7.15585103
22
Lattice="12.838071909924857 1.0671190375607227 -1.6067701037917814 -0.6583251936114575 9.595148819900729 -2.2535198419433464 -8.594142633513817 -4.856015652981959 10.102047091579747" Properties=species:S:1:pos:R:3 unique_starting_index=18 config_type=initial n_minim_iter=4 stress="1.5616032772286006e-06 -7.78021580758151e-06 -8.853361710726639e-06 -7.78021580758151e-06 -1.4834755791401537e-05 1.6425668166910766e-05 -8.853361710726639e-06 1.6425668166910766e-05 -3.894156919777714e-05" pbc="T T T"
Si       4.26325361       7.78116643      -0.24760510
Si       0.61127450       0.25850697       6.48624429
Si      -5.88095148      -2.77845468       8.40134836
Si       2.29987116      -0.98661478       8.15330921
Si     -11.21678851      -0.80336689      10.65549579
Si       8.70258385       4.95028090      -0.37868917
Si       5.66340635      -0.12016931       1.81336009
Si      -0.03976146       1.50728029       7.35693806
Si       0.77363942      -1.15118202       8.84010967
Si      -1.16613719       0.64915311       4.45799285
Si       4.61713133       0.94498903       2.90519246
Si      -2.17952821       3.40795889       3.11726378
Si      -7.16883478      -2.06955700       5.97481735
Si       2.54828467       8.46198705      -0.18939587
Si       9.80818959       3.06316551       1.30545306
Si       6.78559697       6.75018361      -4.76561807
Si       1.15843430      -2.08751435       0.55304688
Si       5.30004383      -2.00416946       5.95067604
Si       4.61162321       3.68079631       2.61297227
Si      -0.30875479       2.05581461       4.65783049
Si      -1.53068222       2.16974946       2.22926756
Si      -0.89522962       0.09821062       7.15579895
22
Lattice="12.838027908799265 1.0672162695000607 -1.606733425450113 -0.6582609182672552 9.595075532604236 -2.2536022081829215 -8.594108947057565 -4.856112909028457 10.102079565003693" Properties=species:S:1:pos:R:3 unique_starting_index=18 config_type=initial n_minim_iter=5 stress="-6.739220414606906e-05 3.505320530728549e-05 8.782905155610777e-05 3.505320530728549e-05 1.9481439582100638e-06 -3.818563672984417e-05 8.782905155610777e-05 -3.818563672984417e-05 7.733928700967717e-06" pbc="T T T"
Si       4.26328934       7.78111907      -0.24763189
Si       0.61128448       0.25843469       6.48625522
Si      -5.88091652      -2.77851656       8.40137060
Si       2.29986595      -0.98663549       8.15333376
Si     -11.21671707      -0.80352325      10.65550563
Si       8.70255944       4.95031945      -0.37873468
Si       5.66340050      -0.12012529       1.81338629
Si      -0.03972185       1.50720678       7.35694898
Si       0.77367595      -1.15124933       8.84014604
Si      -1.16610749       0.64908168       4.45797086
Si       4.61715027       0.94502122       2.90524081
Si      -2.17947175       3.40789146       3.11724244
Si      -7.16881552      -2.06962907       5.97483583
Si       2.54834852       8.46191087      -0.18945135
Si       9.80816460       3.06320644       1.30547647
Si       6.78562519       6.75021470      -4.76565040
Si       1.15843922      -2.08749177       0.55308281
Si       5.30004318      -2.00415426       5.95072259
Si       4.61164853       3.68078411       2.61297692
Si      -0.30872996       2.05576241       4.65782452
Si      -1.53066032       2.16969503       2.22924698
Si      -0.89520214       0.09811958       7.15579848
22
Lattice="12.838118209494962 1.067222839238271 -1.6068417276091778 -0.6582369982866751 9.595011941099806 -2.253607447399212 -8.594247609174952 -4.8560968638745186 10.102166072719344" Properties=species:S:1:pos:R:3 unique_starting_index=18 config_type=initial n_minim_iter=6 stress="1.913502651652014e-05 4.564548394578633e-05 -9.21803642328557e-06 4.564548394578633e-05 6.126735921469111e-05 3.0240565915854575e-05 -9.21803642328557e-06 3.0240565915854575e-05 -6.174285755750455e-06" pbc="T T T"
Si       4.26332048       7.78106240      -0.24766050
Si       0.61122611       0.25840802       6.48624928
Si      -5.88102145      -2.77849419       8.40143120
Si       2.29979576      -0.98662137       8.15331416
Si     -11.21687403      -0.80353628      10.65562269
Si       8.70259667       4.95030648      -0.37883890
Si       5.66342500      -0.12010904       1.81334098
Si      -0.03978248       1.50718790       7.35695890
Si       0.77361615      -1.15126027       8.84014863
Si      -1.16614540       0.64905360       4.45796607
Si       4.61716799       0.94503893       2.90522836
Si      -2.17949957       3.40786602       3.11726494
Si      -7.16891985      -2.06962055       5.97491369
Si       2.54838222       8.46184060      -0.18947940
Si       9.80820001       3.06319972       1.30540120
Si       6.78572336       6.75018596      -4.76571309
Si       1.15845676      -2.08747749       0.55308644
Si       5.30003158      -2.00413760       5.95068338
Si       4.61166154       3.68076692       2.61294510
Si      -0.30877344       2.05574548       4.65782955
Si      -1.53068952       2.16967180       2.22925472
Si      -0.89526963       0.09809037       7.15580305
22
Lattice="12.83812065785079 1.0671437484447206 -1.6068839667849206 -0.6582864015884997 9.594914907854772 -2.2536525481735348 -8.59424997434775 -4.856036936591081 10.102226611100704" Properties=species:S:1:pos:R:3 unique_starting_index=18 config_type=initial n_minim_iter=7 stress="-4.481145386914796e-06 -1.1063731747880926e-05 -6.910507670536071e-06 -1.1063731747880926e-05 -2.557150506144679e-05 1.9993943996658276e-06 -6.910507670536071e-06 1.9993943996658276e-06 1.904352680065125e-05" pbc="T T T"
Si       4.26327641       7.78094457      -0.24770082
Si       0.61120278       0.25836172       6.48625087
Si      -5.88102936      -2.77845731       8.40147263
Si       2.29977226      -0.98665441       8.15331906
Si     -11.21690447      -0.80350908      10.65567829
Si       8.70256229       4.95020539      -0.37889880
Si       5.66342520      -0.12014267       1.81332870
Si      -0.03981334       1.50713367       7.35696382
Si       0.77360212      -1.15129689       8.84016204
Si      -1.16615785       0.64902462       4.45796512
Si       4.61716334       0.94499953       2.90522795
Si      -2.17952620       3.40782583       3.11726185
Si      -7.16893224      -2.06957849       5.97495687
Si       2.54833964       8.46172088      -0.18952471
Si       9.80817624       3.06310621       1.30536649
Si       6.78570373       6.75009368      -4.76577041
Si       1.15847689      -2.08746310       0.55309937
Si       5.30003284      -2.00417043       5.95068495
Si       4.61163673       3.68068899       2.61292310
Si      -0.30879974       2.05570004       4.65782813
Si      -1.53071197       2.16964245       2.22924902
Si      -0.89529035       0.09805205       7.15581066
22
Lattice="12.838245625341573 1.0670597733992009 -1.6068909107603635 -0.6583740354527379 9.594870171993762 -2.253839525163936 -8.594310797569655 -4.856163001884193 10.102115166058708" Properties=species:S:1:pos:R:3 unique_starting_index=18 config_type=initial n_minim_iter=8 stress="9.973882115822467e-06 -1.3576229297995935e-05 5.565588928666061e-07 -1.3576229297995935e-05 2.8334617789822144e-05 -2.3548678812024324e-05 5.565588928666061e-07 -2.3548678812024324e-05 -3.576746141011354e-05" pbc="T T T"
Si       4.26325238       7.78080035      -0.24785803
Si       0.61117783       0.25813020       6.48604341
Si      -5.88107150      -2.77853060       8.40135047
Si       2.29976059      -0.98684738       8.15310964
Si     -11.21704904      -0.80362611      10.65548556
Si       8.70257782       4.95009280      -0.37908229
Si       5.66349057      -0.12020308       1.81328362
Si      -0.03985207       1.50690503       7.35674606
Si       0.77358821      -1.15155698       8.83993552
Si      -1.16616607       0.64887081       4.45781982
Si       4.61724292       0.94493821       2.90519760
Si      -2.17957638       3.40776087       3.11711625
Si      -7.16902954      -2.06961506       5.97490464
Si       2.54832194       8.46156532      -0.18973386
Si       9.80823342       3.06297033       1.30526142
Si       6.78571507       6.75009325      -4.76588035
Si       1.15856173      -2.08747117       0.55317143
Si       5.30011984      -2.00433629       5.95057410
Si       4.61166124       3.68056279       2.61278067
Si      -0.30880433       2.05554043       4.65767449
Si      -1.53079149       2.16954799       2.22911846
Si      -0.89531030       0.09781594       7.15560780
22
Lattice="12.838236216162555 1.0670996155193544 -1.6069306235634175 -0.6583102868102186 9.594555297771901 -2.2538367834266833 -8.594343869153002 -4.856025664506851 10.10226192002186" Properties=species:S:1:pos:R:3 unique_starting_index=18 config_type=initial n_minim_iter=9 stress="-2.3772621691856783e-05 -2.1380561977695664e-06 6.174516704875568e-06 -2.1380561977695664e-06 1.667228861099954e-06 2.37080608215689e-05 6.174516704875568e-06 2.37080608215689e-05 1.977634552929138e-05" pbc="T T T"
Si       4.26329940       7.78056244      -0.24781113
Si       0.61116186       0.25810994       6.48610883
Si      -5.88108702      -2.77840393       8.40148095
Si       2.29971836      -0.98675858       8.15320216
Si     -11.21708169      -0.80361161      10.65567316
Si       8.70258149       4.94998742      -0.37909967
Si       5.66348125      -0.12013466       1.81330808
Si      -0.03986303       1.50686387       7.35686003
Si       0.77355694      -1.15149509       8.84002792
Si      -1.16616563       0.64882792       4.45787223
Si       4.61727159       0.94499259       2.90529093
Si      -2.17954875       3.40769227       3.11719264
Si      -7.16906430      -2.06954622       5.97502032
Si       2.54839563       8.46128479      -0.18970456
Si       9.80822490       3.06294419       1.30528007
Si       6.78575253       6.74990715      -4.76597051
Si       1.15858725      -2.08740441       0.55319544
Si       5.30010730      -2.00421183       5.95064503
Si       4.61168438       3.68050303       2.61284401
Si      -0.30877614       2.05547635       4.65776294
Si      -1.53081934       2.16945633       2.22914730
Si      -0.89532614       0.09778922       7.15569168
22
Lattice="12.838363832140011 1.067141963535324 -1.6069755094395501 -0.6582778223234637 9.594454024342422 -2.2539082210089365 -8.594471005395661 -4.856077422836677 10.102304491808678" Properties=species:S:1:pos:R:3 unique_starting_index=18 config_type=initial n_minim_iter=10 stress="4.646571742080518e-05 4.478930410566678e-05 -7.41018491363364e-06 4.478930410566678e-05 -5.405693066081938e-05 -2.329473063053772e-05 -7.41018491363364e-06 -2.329473063053772e-05 5.321975834274082e-06" pbc="T T T"
Si       4.26337029       7.78047542      -0.24787671
Si       0.61114559       0.25804198       6.48608059
Si      -5.88117393      -2.77843848       8.40150561
Si       2.29970631      -0.98680293       8.15317728
Si     -11.21723247      -0.80372383      10.65568888
Si       8.70267165       4.94995431      -0.37916167
Si       5.66352674      -0.12012066       1.81329126
Si      -0.03988464       1.50677582       7.35682312
Si       0.77353117      -1.15155271       8.84000118
Si      -1.16619150       0.64876499       4.45785052
Si       4.61732269       0.94498957       2.90528368
Si      -2.17956260       3.40763372       3.11716365
Si      -7.16916498      -2.06958065       5.97505469
Si       2.54845834       8.46118089      -0.18977871
Si       9.80831324       3.06293028       1.30521824
Si       6.78585565       6.74988402      -4.76604815
Si       1.15860654      -2.08738462       0.55321787
Si       5.30013795      -2.00421621       5.95063131
Si       4.61173614       3.68046039       2.61280114
Si      -0.30878133       2.05540824       4.65773616
Si      -1.53084955       2.16940253       2.22912858
Si      -0.89536195       0.09770766       7.15566101
22
Lattice="12.838461332068936 1.0669449700454794 -1.607079396422603 -0.6584226749791174 9.594364600611337 -2.254054335659127 -8.594542323366017 -4.85605551509468 10.102328498251516" Properties=species:S:1:pos:R:3 unique_starting_index=18 config_type=initial n_minim_iter=11 stress="-3.335257349433396e-07 -9.976660285776188e-06 -3.7442652342877055e-07 -9.976660285776188e-06 1.1328349593470143e-05 -6.454361568161888e-06 -3.7442652342877055e-07 -6.454361568161888e-06 -1.1980314632351143e-05" pbc="T T T"
Si       4.26330454       7.78025943      -0.24800918
Si       0.61107542       0.25784017       6.48594735
Si      -5.88123067      -2.77837033       8.40150876
Si       2.29965729      -0.98697644       8.15304049
Si     -11.21745050      -0.80372005      10.65564632
Si       8.70262916       4.94972676      -0.37928414
Si       5.66355107      -0.12020931       1.81324246
Si      -0.03998927       1.50658076       7.35665855
Si       0.77348376      -1.15172686       8.83983694
Si      -1.16626300       0.64861836       4.45773597
Si       4.61738223       0.94491846       2.90528374
Si      -2.17964421       3.40763142       3.11706833
Si      -7.16927419      -2.06948499       5.97511231
Si       2.54838880       8.46097462      -0.18994401
Si       9.80829298       3.06271173       1.30503931
Si       6.78586226       6.74975928      -4.76621685
Si       1.15872135      -2.08740849       0.55328513
Si       5.30019298      -2.00437572       5.95054878
Si       4.61171347       3.68032081       2.61269344
Si      -0.30884877       2.05527924       4.65763222
Si      -1.53098843       2.16933574       2.22907423
Si      -0.89544827       0.09750372       7.15548715
22
Lattice="12.83859707483223 1.0668988480312216 -1.6072114988762558 -0.658428078769697 9.594048565138497 -2.254161640469846 -8.59470520092857 -4.855975145268411 10.10249769808287" Properties=species:S:1:pos:R:3 unique_starting_index=18 config_type=initial n_minim_iter=12 stress="4.079153954916919e-06 1.8315935429021719e-06 -4.100538133345761e-06 1.8315935429021719e-06 -8.394509800977649e-06 4.975322482738867e-06 -4.100538133345761e-06 4.975322482738867e-06 9.216620676241681e-06" pbc="T T T"
Si       4.26337691       7.77993430      -0.24808168
Si       0.61098840       0.25768244       6.48592118
Si      -5.88133786      -2.77823619       8.40165317
Si       2.29960866      -0.98704532       8.15304311
Si     -11.21770975      -0.80373181      10.65580481
Si       8.70269635       4.94949336      -0.37937272
Si       5.66357118      -0.12019440       1.81323239
Si      -0.04008454       1.50641297       7.35663476
Si       0.77337050      -1.15182784       8.83982349
Si      -1.16633869       0.64848842       4.45767593
Si       4.61747357       0.94492753       2.90535769
Si      -2.17969780       3.40752703       3.11705314
Si      -7.16943148      -2.06937886       5.97527546
Si       2.54846176       8.46062932      -0.19003736
Si       9.80831018       3.06262087       1.30490266
Si       6.78599226       6.74953970      -4.76641378
Si       1.15882160      -2.08738170       0.55335152
Si       5.30022711      -2.00436507       5.95056120
Si       4.61175775       3.68020772       2.61267066
Si      -0.30891125       2.05512446       4.65759174
Si      -1.53107814       2.16922880       2.22907355
Si      -0.89553233       0.09733039       7.15540660
22
Lattice="12.8386169271899 1.0668513970205984 -1.6072317713956048 -0.658466343887701 9.593915636534804 -2.254292606514377 -8.594714942242057 -4.856015538829767 10.102483266776632" Properties=species:S:1:pos:R:3 unique_starting_index=18 config_type=initial n_minim_iter=13 stress="1.8926889452637651e-07 -2.021545988853541e-06 1.0574024706764748e-07 -2.021545988853541e-06 -3.577657171160567e-06 -4.354241473874014e-06 1.0574024706764748e-07 -4.354241473874014e-06 -4.876700767489662e-06" pbc="T T T"
Si       4.26340283       7.77974203      -0.24817444
Si       0.61096784       0.25750882       6.48579087
Si      -5.88133132      -2.77819118       8.40165144
Si       2.29957684      -0.98717434       8.15299556
Si     -11.21779688      -0.80382810      10.65571950
Si       8.70270163       4.94932590      -0.37945362
Si       5.66355456      -0.12021198       1.81324073
Si      -0.04013328       1.50623731       7.35651008
Si       0.77334369      -1.15198020       8.83971182
Si      -1.16638095       0.64835495       4.45752915
Si       4.61753505       0.94491011       2.90540000
Si      -2.17973087       3.40747093       3.11697798
Si      -7.16947140      -2.06932743       5.97530873
Si       2.54849104       8.46044421      -0.19015181
Si       9.80826654       3.06255153       1.30480603
Si       6.78597895       6.74944838      -4.76650273
Si       1.15890756      -2.08740153       0.55342022
Si       5.30026078      -2.00443326       5.95054343
Si       4.61177518       3.68013454       2.61262204
Si      -0.30891989       2.05499055       4.65743820
Si      -1.53112657       2.16914486       2.22899275
Si      -0.89556931       0.09713710       7.15524340
22
Lattice="12.838626705269249 1.0668371447906801 -1.6072547465334357 -0.6584749373835777 9.59382328977337 -2.2543657130241437 -8.594730321957455 -4.856034920501303 10.102501185860074" Properties=species:S:1:pos:R:3 unique_starting_index=18 config_type=initial n_minim_iter=14 stress="-3.854050391010006e-06 1.365656832931736e-06 8.779074361927865e-07 1.365656832931736e-06 -5.560274193247955e-06 -3.806195986159076e-06 8.779074361927865e-07 -3.806195986159076e-06 -1.9371119232187787e-06" pbc="T T T"
Si       4.26345168       7.77961284      -0.24821959
Si       0.61095268       0.25741543       6.48570465
Si      -5.88132777      -2.77812376       8.40169001
Si       2.29953633      -0.98724204       8.15300730
Si     -11.21783409      -0.80388510      10.65568675
Si       8.70267251       4.94923776      -0.37950087
Si       5.66352992      -0.12020639       1.81326092
Si      -0.04017908       1.50610673       7.35645006
Si       0.77332088      -1.15209264       8.83964250
Si      -1.16642220       0.64828711       4.45743227
Si       4.61758304       0.94492264       2.90545544
Si      -2.17974234       3.40744781       3.11695842
Si      -7.16949982      -2.06926753       5.97536716
Si       2.54854089       8.46032997      -0.19020110
Si       9.80824066       3.06252218       1.30474379
Si       6.78599408       6.74937274      -4.76658625
Si       1.15897473      -2.08743015       0.55346886
Si       5.30027840      -2.00445156       5.95055623
Si       4.61179791       3.68011725       2.61261827
Si      -0.30894620       2.05488887       4.65733948
Si      -1.53117658       2.16909848       2.22893645
Si      -0.89560005       0.09701709       7.15515928
22
Lattice="12.838729671277635 1.0667749852077693 -1.6073064786950615 -0.6585171990421015 9.59378567688193 -2.25438752424351 -8.594815471705777 -4.855999486758083 10.102532491796522" Properties=species:S:1:pos:R:3 unique_starting_index=18 config_type=initial n_minim_iter=15 stress="-8.066528264868941e-07 3.955517797670491e-06 1.4486258185415965e-06 3.955517797670491e-06 -1.0720479863456697e-05 2.9484381822358134e-06 1.4486258185415965e-06 2.9484381822358134e-06 4.482060655794435e-06" pbc="T T T"
Si       4.26353948       7.77950791      -0.24823191
Si       0.61090021       0.25737285       6.48561070
Si      -5.88137057      -2.77796164       8.40177122
Si       2.29952067      -0.98730503       8.15300234
Si     -11.21801196      -0.80386729      10.65569964
Si       8.70267300       4.94914454      -0.37959505
Si       5.66352823      -0.12020910       1.81328781
Si      -0.04025589       1.50599218       7.35640601
Si       0.77325357      -1.15214014       8.83957960
Si      -1.16650184       0.64821221       4.45732252
Si       4.61766119       0.94495342       2.90553287
Si      -2.17976912       3.40744913       3.11695877
Si      -7.16957981      -2.06912424       5.97547345
Si       2.54860803       8.46027418      -0.19019221
Si       9.80827847       3.06248035       1.30467789
Si       6.78603586       6.74929183      -4.76666815
Si       1.15907457      -2.08750625       0.55351034
Si       5.30033308      -2.00445764       5.95057789
Si       4.61184836       3.68015132       2.61265216
Si      -0.30899140       2.05481541       4.65725232
Si      -1.53129032       2.16913184       2.22889486
Si      -0.89563667       0.09691948       7.15509024
22
Lattice="12.838814631905445 1.0666889710799308 -1.6073621876576643 -0.6585852127703857 9.593846068969007 -2.254420502997903 -8.59488238911952 -4.856007304135976 10.102537349649625" Properties=species:S:1:pos:R:3 unique_starting_index=18 config_type=initial n_minim_iter=16 stress="2.773420286448177e-06 -2.2172765731696314e-06 -1.803774645441462e-06 -2.2172765731696314e-06 1.0070871048839763e-07 -3.646711308039214e-06 -1.803774645441462e-06 -3.646711308039214e-06 -3.886179147795413e-06" pbc="T T T"
Si       4.26358992       7.77947420      -0.24827013
Si       0.61084887       0.25731256       6.48550135
Si      -5.88140808      -2.77784582       8.40182334
Si       2.29949806      -0.98739597       8.15294337
Si     -11.21818487      -0.80386207      10.65567491
Si       8.70265667       4.94907744      -0.37971312
Si       5.66352413      -0.12024017       1.81329768
Si      -0.04032982       1.50591577       7.35633628
Si       0.77318770      -1.15219743       8.83948933
Si      -1.16658069       0.64817200       4.45723709
Si       4.61771527       0.94495979       2.90557345
Si      -2.17981805       3.40748945       3.11694125
Si      -7.16964176      -2.06900750       5.97555579
Si       2.54863807       8.46029795      -0.19020638
Si       9.80828072       3.06242682       1.30460419
Si       6.78607157       6.74924636      -4.76676169
Si       1.15916396      -2.08760042       0.55354512
Si       5.30037932      -2.00451211       5.95057349
Si       4.61187595       3.68019167       2.61265666
Si      -0.30905589       2.05474536       4.65716458
Si      -1.53136848       2.16916985       2.22883253
Si      -0.89568300       0.09680594       7.15499673
22
Lattice="12.838828050421977 1.0666186500089767 -1.607388663430342 -0.6586352843971249 9.593880048621045 -2.2544096927138826 -8.594887975706742 -4.855966782920847 10.102545327515907" Properties=species:S:1:pos:R:3 unique_starting_index=18 config_type=initial n_minim_iter=17 stress="2.997059497169608e-06 -7.847596192217393e-07 -1.5064658775943652e-06 -7.847596192217393e-07 -1.5488978254041278e-06 1.430053267108249e-06 -1.5064658775943652e-06 1.430053267108249e-06 1.2331870429833499e-06" pbc="T T T"
Si       4.26365965       7.77943732      -0.24825167
Si       0.61079217       0.25728688       6.48544987
Si      -5.88139757      -2.77764764       8.40192045
Si       2.29943867      -0.98741569       8.15288400
Si     -11.21825818      -0.80382872      10.65564316
Si       8.70256685       4.94902426      -0.37979167
Si       5.66348502      -0.12024641       1.81334740
Si      -0.04038237       1.50587691       7.35629082
Si       0.77313266      -1.15221710       8.83940633
Si      -1.16665136       0.64812985       4.45718341
Si       4.61775430       0.94499792       2.90565932
Si      -2.17987536       3.40752022       3.11693756
Si      -7.16964289      -2.06883499       5.97566906
Si       2.54870235       8.46032813      -0.19014737
Si       9.80824793       3.06242915       1.30456910
Si       6.78604444       6.74914893      -4.76681288
Si       1.15925742      -2.08771741       0.55357881
Si       5.30041461      -2.00450098       5.95062566
Si       4.61190699       3.68027754       2.61273182
Si      -0.30906165       2.05468769       4.65710843
Si      -1.53142393       2.16920432       2.22880068
Si      -0.89570113       0.09671545       7.15489976
22
Lattice="12.83872235633243 1.0665211310815677 -1.6073816575792097 -0.6587123409435396 9.593962961171078 -2.2544214201560995 -8.59478147473521 -4.855955489140869 10.10249967438928" Properties=species:S:1:pos:R:3 unique_starting_index=18 config_type=initial n_minim_iter=18 stress="-2.772148195930399e-07 -1.2462166990340498e-06 6.719159279896291e-07 -1.2462166990340498e-06 2.25431963489874e-06 -3.573801925923779e-07 6.719159279896291e-07 -3.573801925923779e-07 -2.0592943537475507e-06" pbc="T T T"
Si       4.26375448       7.77940689      -0.24823166
Si       0.61080936       0.25721247       6.48531847
Si      -5.88130029      -2.77733398       8.40206572
Si       2.29931287      -0.98746161       8.15269072
Si     -11.21823186      -0.80381489      10.65551099
Si       8.70236676       4.94892545      -0.37993987
Si       5.66337591      -0.12025724       1.81345593
Si      -0.04047973       1.50575205       7.35614616
Si       0.77303685      -1.15231523       8.83926357
Si      -1.16670254       0.64801719       4.45705190
Si       4.61777862       0.94505229       2.90579952
Si      -2.17992823       3.40758485       3.11686233
Si      -7.16953967      -2.06856313       5.97583173
Si       2.54881303       8.46040972      -0.19005772
Si       9.80807446       3.06240699       1.30448644
Si       6.78592719       6.74905296      -4.76686555
Si       1.15940682      -2.08794012       0.55364724
Si       5.30045051      -2.00448495       5.95073610
Si       4.61193918       3.68043626       2.61286759
Si      -0.30909304       2.05454411       4.65700082
Si      -1.53148360       2.16924192       2.22876546
Si      -0.89576422       0.09658407       7.15471353
22
Lattice="12.838692867223058 1.0665030349062286 -1.6073907557582159 -0.6587228563705773 9.593957291564752 -2.2544259790729386 -8.59476166788476 -4.855944161277623 10.102510239626424" Properties=species:S:1:pos:R:3 unique_starting_index=18 config_type=initial n_minim_iter=19 stress="-2.0464978967459263e-07 -1.8467629247813962e-06 1.9662756562406547e-06 -1.8467629247813962e-06 2.8836996911069467e-06 -2.7674282809900017e-07 1.9662756562406547e-06 -2.7674282809900017e-07 -3.5942625926520865e-06" pbc="T T T"
Si       4.26378669       7.77938772      -0.24822227
Si       0.61078682       0.25718817       6.48530074
Si      -5.88128367      -2.77723786       8.40213637
Si       2.29927109      -0.98747094       8.15264388
Si     -11.21822571      -0.80382521      10.65551064
Si       8.70231723       4.94888947      -0.37997973
Si       5.66335222      -0.12025136       1.81348686
Si      -0.04051407       1.50570548       7.35611923
Si       0.77301550      -1.15234665       8.83925615
Si      -1.16672038       0.64798710       4.45702353
Si       4.61778008       0.94506911       2.90583724
Si      -2.17993628       3.40759997       3.11684956
Si      -7.16951060      -2.06848648       5.97589356
Si       2.54885162       8.46041102      -0.19003094
Si       9.80800667       3.06238103       1.30445562
Si       6.78588421       6.74901947      -4.76691449
Si       1.15944723      -2.08799738       0.55366713
Si       5.30045716      -2.00446086       5.95077927
Si       4.61195189       3.68047566       2.61291332
Si      -0.30910296       2.05451181       4.65697231
Si      -1.53148983       2.16923804       2.22874725
Si      -0.89576507       0.09656529       7.15466711
22
Lattice="12.838638381527554 1.0664955110128642 -1.6074641765540751 -0.6587089844125975 9.593883773102444 -2.2544443343878933 -8.594768512247036 -4.855912439366258 10.102624076672974" Properties=species:S:1:pos:R:3 unique_starting_index=18 config_type=initial n_minim_iter=20 stress="-2.220474764858088e-06 -8.719272084561496e-07 1.2127057087088552e-06 -8.719272084561496e-07 1.9484295654866503e-06 1.4115314537404794e-06 1.2127057087088552e-06 1.4115314537404794e-06 1.2861091397878076e-07" pbc="T T T"
Si       4.26387113       7.77932616      -0.24820640
Si       0.61073363       0.25711602       6.48527755
Si      -5.88129175      -2.77703132       8.40237423
Si       2.29915813      -0.98748612       8.15258731
Si     -11.21824374      -0.80388208      10.65562614
Si       8.70222911       4.94880879      -0.38007946
Si       5.66331468      -0.12021595       1.81354249
Si      -0.04059413       1.50565540       7.35613090
Si       0.77295797      -1.15241524       8.83931184
Si      -1.16677430       0.64793321       4.45699572
Si       4.61776857       0.94511125       2.90590946
Si      -2.17995933       3.40755305       3.11683230
Si      -7.16946777      -2.06833650       5.97608275
Si       2.54895079       8.46036732      -0.18998208
Si       9.80790548       3.06234526       1.30435077
Si       6.78581273       6.74893739      -4.76711086
Si       1.15952491      -2.08810111       0.55370908
Si       5.30044932      -2.00436918       5.95089384
Si       4.61198243       3.68054716       2.61301698
Si      -0.30914728       2.05445391       4.65693776
Si      -1.53154248       2.16921468       2.22873568
Si      -0.89582680       0.09650165       7.15462533
22
Lattice="12.838650376014716 1.0665058258179867 -1.6075553817183774 -0.6586831585557278 9.593790206937006 -2.2544847286003935 -8.594837115407374 -4.855906142432668 10.10274888014746" Properties=species:S:1:pos:R:3 unique_starting_index=18 config_type=initial n_minim_iter=21 stress="-2.87279800425044e-06 -5.166051339560455e-07 -1.0312698403250525e-06 -5.166051339560455e-07 2.4644308830673713e-06 1.179573115053046e-06 -1.0312698403250525e-06 1.179573115053046e-06 2.3965632384226088e-06" pbc="T T T"
Si       4.26396345       7.77926334      -0.24821023
Si       0.61065877       0.25707759       6.48527387
Si      -5.88134960      -2.77687587       8.40261094
Si       2.29906928      -0.98753484       8.15255313
Si     -11.21834138      -0.80396185      10.65573469
Si       8.70220646       4.94873282      -0.38020092
Si       5.66332669      -0.12017474       1.81357574
Si      -0.04064278       1.50557353       7.35610085
Si       0.77288504      -1.15248840       8.83933783
Si      -1.16682104       0.64786246       4.45695638
Si       4.61776810       0.94514174       2.90594806
Si      -2.18001874       3.40748718       3.11681821
Si      -7.16946931      -2.06823587       5.97625778
Si       2.54904136       8.46029616      -0.18997216
Si       9.80787962       3.06230898       1.30423108
Si       6.78581136       6.74888356      -4.76729583
Si       1.15959382      -2.08817826       0.55375028
Si       5.30045532      -2.00428176       5.95098567
Si       4.61202863       3.68058724       2.61308948
Si      -0.30921741       2.05439792       4.65692125
Si      -1.53158552       2.16913101       2.22869153
Si      -0.89592074       0.09641254       7.15460874
