20
Lattice="5.4283508326369505 -3.1356883763044145e-16 -1.220314671997614e-14 2.937030868391e-16 5.084444640733687 -9.139069550569349e-15 4.7866377546789594e-14 3.8408094012951064e-14 21.292499088460072" Properties=species:S:1:pos:R:3 unique_starting_index=4 config_type=initial n_minim_iter=17 energy=-3306.771241474983 free_energy=-3306.771241474983 pbc="T T T"
Si       2.92968627       2.66918008      14.01668503
Si       2.92968627       2.41526456       7.27581405
Si       2.50134849       3.12501417      12.24744257
Si       2.50134849       1.95943047       9.04505652
Si       2.49866456       0.12695776      17.92206360
Si       2.49866456       4.95748688       3.37043549
Si       2.92700234       5.66723649      19.69130607
Si       2.92700234      -0.58279185       1.60119302
Si       2.87157760       4.17568982       4.97910665
Si       2.87157760       0.90875483      16.31339244
Si       2.84217470       3.39092011      17.47104209
Si       2.84217470       1.69352453       3.82145700
Si       2.55677323       1.63346749       5.66714290
Si       2.55677323       3.45097715      15.62535619
Si       2.58617614       0.84869779      14.46770655
Si       2.58617614       4.23574685       6.82479254
Si       2.90273048       3.18664495      20.55722966
Si       2.90273048       1.89779970       0.73526943
Si       2.52562035       4.44002202       9.91098012
Si       2.52562035       0.64442263      11.38151897
