6
Lattice="3.8643362585507584 -2.251381226936682e-16 -1.276014105411417e-19 2.22063460879025e-16 3.8115618683633015 -4.2048254832057254e-16 3.5496736925127074e-19 1.1859131059649522e-15 10.74998520614499" Properties=species:S:1:pos:R:3 unique_starting_index=12 config_type=initial n_minim_iter=1 energy=-974.6464135349546 free_energy=-974.6464135349546 pbc="T T T"
Si       0.32824165       1.90578093       7.78438604
Si       0.32824165       1.90578093       2.96559917
Si       2.26170629       0.94800686       5.37499260
Si       2.26170629       2.86355501       5.37499260
Si       0.15392852      -0.00000000       0.00000000
Si       2.09096597      -0.00000000       0.00000000
6
Lattice="3.874344071815124 -2.257844441643805e-16 -1.2706803405130876e-19 2.2165587488867483e-16 3.8056253277229124 -4.225508000503637e-16 3.5779441214283277e-19 1.1796351032430656e-15 10.76278277437135" Properties=species:S:1:pos:R:3 unique_starting_index=12 config_type=initial n_minim_iter=2 stress="0.0038074941304702442 8.439151152883135e-18 3.631111723397979e-16 8.439151152883135e-18 1.1352934863012772e-05 6.815357766512141e-17 3.631111723397979e-16 6.815357766512141e-17 -0.0003215736317454298" pbc="T T T"
Si       0.32874161       1.90281266       7.79517375
Si       0.32874161       1.90281266       2.96760903
Si       2.26784267       0.94490257       5.38139139
Si       2.26784267       2.86072276       5.38139139
Si       0.15447944      -0.00000000       0.00000000
Si       2.09637101      -0.00000000       0.00000000
6
Lattice="3.870457006329046 -2.255840866157946e-16 -1.2640486239861212e-19 2.2136412017495582e-16 3.801059649141627 -4.211290671251356e-16 3.5969186006344316e-19 1.1835940508539593e-15 10.775288538462862" Properties=species:S:1:pos:R:3 unique_starting_index=12 config_type=initial n_minim_iter=3 stress="-0.004193118727202651 -3.0859118998247386e-18 -6.888765091186486e-17 -3.0859118998247386e-18 -0.00789985407864156 -6.0740807011934705e-18 -6.888765091186486e-17 -6.0740807011934705e-18 0.002079636031758978" pbc="T T T"
Si       0.32755791       1.90052982       7.80753400
Si       0.32755791       1.90052982       2.96775453
Si       2.26611092       0.94238666       5.38764427
Si       2.26611092       2.85867298       5.38764427
Si       0.15476629      -0.00000000       0.00000000
Si       2.09444659      -0.00000000       0.00000000
6
Lattice="3.8692512134889356 -2.255402518299823e-16 -1.2530766894252406e-19 2.2197858744907771e-16 3.8120478307638757 -4.28115558857386e-16 3.6398686091017213e-19 1.1718492303599226e-15 10.816464863037249" Properties=species:S:1:pos:R:3 unique_starting_index=12 config_type=initial n_minim_iter=4 stress="-0.0029276935122039905 -3.823037074897502e-16 3.9383022351505715e-16 -3.823037074897502e-16 0.009187060007544209 -4.5154580640206e-17 3.9383022351505715e-16 -4.5154580640206e-17 0.00987378109212632" pbc="T T T"
Si       0.32204208       1.90602392       7.85885984
Si       0.32204208       1.90602392       2.95760502
Si       2.26883339       0.93991994       5.40823243
Si       2.26883339       2.87212789       5.40823243
Si       0.15727839      -0.00000000       0.00000000
Si       2.09520445      -0.00000000       0.00000000
6
Lattice="3.8818161521026835 -2.2628125472134777e-16 -1.2704985456613238e-19 2.2110990118529768e-16 3.797303446676632 -4.3696123653224983e-16 3.6036646031716583e-19 1.1427870120766313e-15 10.819479999148072" Properties=species:S:1:pos:R:3 unique_starting_index=12 config_type=initial n_minim_iter=5 stress="-0.002039051211954653 -5.238417148059725e-16 -2.494825123281004e-16 -5.238417148059725e-16 -0.003907867873227607 -4.158226426309272e-17 -2.494825123281004e-16 -4.158226426309272e-17 -0.023720333289407886" pbc="T T T"
Si       0.30373753       1.89865172       7.93919866
Si       0.30373753       1.89865172       2.88028134
Si       2.28854369       0.92842967       5.40974000
Si       2.28854369       2.86887377       5.40974000
Si       0.16548143      -0.00000000      -0.00000000
Si       2.10833171      -0.00000000       0.00000000
6
Lattice="3.9064911640412903 -2.2806594754566846e-16 -1.3192563823821204e-19 2.1922458067918617e-16 3.7708757040520418 -3.9780413919085775e-16 3.5579509107562027e-19 1.2673640463428286e-15 11.015528058797626" Properties=species:S:1:pos:R:3 unique_starting_index=12 config_type=initial n_minim_iter=6 stress="0.00959780834545134 4.7893203254335314e-17 6.135410745450379e-16 4.7893203254335314e-17 -0.01873947918809106 2.3917150389262813e-17 6.135410745450379e-16 2.3917150389262813e-17 -0.03631743134554099" pbc="T T T"
Si       0.27680267       1.88543785       8.20248859
Si       0.27680267       1.88543785       2.81303946
Si       2.32176067       0.92068870       5.50776403
Si       2.32176067       2.85018701       5.50776403
Si       0.17602722      -0.00000000      -0.00000000
Si       2.13263131      -0.00000000      -0.00000000
6
Lattice="3.9037852883516235 -2.2820168678447257e-16 -1.5013865362603712e-19 2.1883558481327924e-16 3.769163185629384 -3.656102494112797e-16 3.0957684533735653e-19 1.3703901292440341e-15 11.134055045668097" Properties=species:S:1:pos:R:3 unique_starting_index=12 config_type=initial n_minim_iter=7 stress="0.005644038623989005 4.743774563731086e-18 6.017470507379387e-16 4.743774563731086e-18 -0.012969149174953344 -7.701280471167775e-17 6.017470507379387e-16 -7.701280471167775e-17 -0.03455694572159436" pbc="T T T"
Si       0.27942719       1.88458159       8.28426689
Si       0.27942719       1.88458159       2.84978816
Si       2.31817080       0.93469478       5.56702752
Si       2.31817080       2.83446840       5.56702752
Si       0.17429164      -0.00000000      -0.00000000
Si       2.13109863      -0.00000000      -0.00000000
6
Lattice="3.8997598095069126 -2.284678389174406e-16 -2.725508830212265e-19 2.1822571069218803e-16 3.767162385926028 -3.71366782753253e-16 7.597189875069973e-21 1.4247331667075592e-15 11.896978457717212" Properties=species:S:1:pos:R:3 unique_starting_index=12 config_type=initial n_minim_iter=8 stress="-0.0016984715278105644 -3.8112953471174775e-18 9.70741526673298e-16 -3.8112953471174775e-18 -0.011114583377638033 2.242531208087387e-17 9.70741526673298e-16 2.242531208087387e-17 -0.020735342846272844" pbc="T T T"
Si       0.28766090       1.88358119       8.85933024
Si       0.28766090       1.88358119       3.03764822
Si       2.30866207       0.95619859       5.94848923
Si       2.30866207       2.81096379       5.94848923
Si       0.16242705      -0.00000000      -0.00000000
Si       2.13777885      -0.00000000      -0.00000000
6
Lattice="3.8918355799685402 -2.283670020746194e-16 -2.8488235465937627e-19 2.1896086512775302e-16 3.7857091238888825 -4.798764990960808e-16 1.6493409270295355e-23 1.1681903854172752e-15 12.312388270063169" Properties=species:S:1:pos:R:3 unique_starting_index=12 config_type=initial n_minim_iter=9 stress="0.0067638325850497595 -2.254531721570153e-16 2.2025654546439147e-15 -2.254531721570153e-16 -0.015306453389494138 -3.325635166742673e-17 2.2025654546439147e-15 -3.325635166742673e-17 -0.0041687610341767725" pbc="T T T"
Si       0.30795768       1.89285456       9.08448761
Si       0.30795768       1.89285456       3.22790066
Si       2.28725523       0.96167547       6.15619414
Si       2.28725523       2.82403366       6.15619414
Si       0.17458023      -0.00000000      -0.00000000
Si       2.11262048      -0.00000000      -0.00000000
6
Lattice="3.8780258128027705 -2.27680646827263e-16 -2.900089302910653e-19 2.206018486569438e-16 3.8155421622419547 -4.852179380277519e-16 -1.2553098523242732e-23 1.188652706939146e-15 12.533497410210273" Properties=species:S:1:pos:R:3 unique_starting_index=12 config_type=initial n_minim_iter=10 stress="-0.005975970874914867 -6.384573067322156e-16 1.7089723777322963e-15 -6.384573067322156e-16 0.001897182751044419 3.574751740128758e-17 1.7089723777322963e-15 3.574751740128758e-17 0.0029110994171171094" pbc="T T T"
Si       0.28864088       1.90777108       9.27131428
Si       0.28864088       1.90777108       3.26218313
Si       2.27919650       0.95191642       6.26674871
Si       2.27919650       2.86362574       6.26674871
Si       0.20359751      -0.00000000      -0.00000000
Si       2.11182071      -0.00000000      -0.00000000
6
Lattice="3.870399540838963 -2.27303348405191e-16 -2.8871581229240645e-19 2.215846378238229e-16 3.833350857043185 -4.647536733458126e-16 1.332007678086406e-23 1.244300830069716e-15 12.47801277820079" Properties=species:S:1:pos:R:3 unique_starting_index=12 config_type=initial n_minim_iter=11 stress="-0.002386242279422421 -7.06590642568905e-16 1.699742739652559e-15 -7.06590642568905e-16 0.005869669343842744 -4.373383206253548e-17 1.699742739652559e-15 -4.373383206253548e-17 -0.008912253989342273" pbc="T T T"
Si       0.28551441       1.91667543       9.18393596
Si       0.28551441       1.91667543       3.29407682
Si       2.26818091       0.94728763       6.23900639
Si       2.26818091       2.88606323       6.23900639
Si       0.20454495      -0.00000000      -0.00000000
Si       2.12450454      -0.00000000      -0.00000000
6
Lattice="3.86804501794745 -2.2727908433740933e-16 -2.9502480278520837e-19 2.222778651960279e-16 3.847035665968306 -6.273036663390109e-16 -4.214103676421599e-23 8.21949035480249e-16 12.749812931512354" Properties=species:S:1:pos:R:3 unique_starting_index=12 config_type=initial n_minim_iter=12 stress="0.016246210372981667 -2.5308988952920008e-17 -1.732669287730774e-15 -2.5308988952920008e-17 -0.006074939714096119 9.141836749079943e-17 -1.732669287730774e-15 9.141836749079943e-17 0.0035139489633160435" pbc="T T T"
Si       0.27437835       1.92351783       9.33835506
Si       0.27437835       1.92351783       3.41145787
Si       2.25726490       0.94702427       6.37490647
Si       2.25726490       2.90001139       6.37490647
Si       0.21848063      -0.00000000      -0.00000000
Si       2.15014911      -0.00000000      -0.00000000
6
Lattice="3.8059857316298817 -2.265796447767177e-16 -1.9017026152778786e-19 2.239159024549264e-16 3.923047001587823 -2.89378569089186e-16 3.243406692864784e-19 1.8679794711715505e-15 13.259829448263526" Properties=species:S:1:pos:R:3 unique_starting_index=12 config_type=initial n_minim_iter=13 stress="0.0057288073541731125 -7.360052913144103e-18 7.770166573406702e-17 -7.360052913144103e-18 0.01314220431465354 5.3939609878956644e-17 7.770166573406702e-17 5.3939609878956644e-17 -0.002037541435203955" pbc="T T T"
Si       0.25377560       1.96152350       9.51559668
Si       0.25377560       1.96152350       3.74423277
Si       2.18770485       0.96518678       6.62991472
Si       2.18770485       2.95786023       6.62991472
Si       0.25985967      -0.00000000      -0.00000000
Si       2.16985730      -0.00000000      -0.00000000
6
Lattice="3.8001820680672904 -2.2927704292175087e-16 -1.1778009154069186e-16 2.2090913123252745e-16 3.922728882651065 2.1317213732604903e-15 -3.268167359240922e-16 8.71063074888627e-15 13.331257281980843" Properties=species:S:1:pos:R:3 unique_starting_index=12 config_type=initial n_minim_iter=14 stress="0.0025455407924412014 -2.1054442770877042e-17 9.662153486437758e-17 -2.1054442770877042e-17 0.01717960385420303 3.050184216949928e-16 9.662153486437758e-17 3.050184216949928e-16 0.0016671588809503788" pbc="T T T"
Si       0.25338020       1.96136444       9.53726538
Si       0.25338020       1.96136444       3.79399190
Si       2.17934128       0.96777749       6.66562864
Si       2.17934128       2.95495139       6.66562864
Si       0.26784023      -0.00000000      -0.00000000
Si       2.16824373      -0.00000000      -0.00000000
6
Lattice="3.8038117483642613 -2.3017573645447477e-16 6.4308388139848816e-15 2.1927053905139e-16 3.906834801833129 -1.14429846241943e-16 1.7853355655133368e-14 2.34846721025586e-15 13.293343009382609" Properties=species:S:1:pos:R:3 unique_starting_index=12 config_type=initial n_minim_iter=15 stress="-0.004090116391322135 -5.520189581313858e-16 6.305225747571894e-16 -5.520189581313858e-16 0.003842210967807351 5.580554742129523e-17 6.305225747571894e-16 5.580554742129523e-17 -0.004768272441105608" pbc="T T T"
Si       0.25551915       1.95341740       9.51375520
Si       0.25551915       1.95341740       3.77958780
Si       2.18189132       0.96796838       6.64667150
Si       2.18189132       2.93886642       6.64667150
Si       0.26861145      -0.00000000       0.00000000
Si       2.16506846      -0.00000000       0.00000000
6
Lattice="3.80542975408234 -2.298917036104049e-16 -9.05090608389527e-15 2.189380882558453e-16 3.8952136984189494 1.547012080794555e-16 -2.5096541052301538e-14 3.0569971881499164e-15 13.365840026603442" Properties=species:S:1:pos:R:3 unique_starting_index=12 config_type=initial n_minim_iter=16 stress="-0.004779241864661767 -4.870361694153111e-16 -9.530383841983612e-16 -4.870361694153111e-16 -0.0011402317752123546 -5.752567251761699e-17 -9.530383841983612e-16 -5.752567251761699e-17 0.0017815923290232193" pbc="T T T"
Si       0.25840564       1.94760685       9.56351427
Si       0.25840564       1.94760685       3.80232575
Si       2.18068849       0.96988152       6.68292001
Si       2.18068849       2.92533218       6.68292001
Si       0.26474559      -0.00000000      -0.00000000
Si       2.16867578      -0.00000000      -0.00000000
6
Lattice="3.809066732523252 -2.2973368847854997e-16 1.2949256790343592e-14 2.193748357719094e-16 3.8965312748179812 -2.4471180772527743e-15 3.618726054134056e-14 -4.280506736749775e-15 13.346926529667904" Properties=species:S:1:pos:R:3 unique_starting_index=12 config_type=initial n_minim_iter=17 stress="-0.0017628463291272664 -2.924817045827963e-17 1.2989979176598968e-15 -2.924817045827963e-17 0.0010757787469773596 -3.414887073554318e-16 1.2989979176598968e-15 -3.414887073554318e-16 -6.946130079656045e-06" pbc="T T T"
Si       0.25879893       1.94826564       9.54666647
Si       0.25879893       1.94826564       3.80026006
Si       2.18195247       0.96872826       6.67346326
Si       2.18195247       2.92780302       6.67346326
Si       0.26643111      -0.00000000       0.00000000
Si       2.17066366      -0.00000000       0.00000000
6
Lattice="3.8121509500766266 -2.298033239943434e-16 -1.4809789677581377e-14 2.1936348058656154e-16 3.894642297882104 -1.6890507230927288e-15 -4.1079092900435454e-14 -2.140893139809829e-15 13.345619336803532" Properties=species:S:1:pos:R:3 unique_starting_index=12 config_type=initial n_minim_iter=18 stress="6.724032149461443e-05 -5.123048750897385e-16 -1.4283515320439823e-15 -5.123048750897385e-16 0.001156270961719929 -2.6380462082124224e-16 -1.4283515320439823e-15 -2.6380462082124224e-16 -0.0003105808168695282" pbc="T T T"
Si       0.26010840       1.94732115       9.54248723
Si       0.26010840       1.94732115       3.80313211
Si       2.18215838       0.96771193       6.67280967
Si       2.18215838       2.92693037       6.67280967
Si       0.26715541      -0.00000000      -0.00000000
Si       2.17283449      -0.00000000      -0.00000000
6
Lattice="3.814020455348907 -2.299213945243475e-16 -1.5059438835119748e-14 2.1920251804790377e-16 3.89218156046856 -3.4686821568863843e-15 -4.178144384597996e-14 -7.15540684755983e-15 13.350073772845613" Properties=species:S:1:pos:R:3 unique_starting_index=12 config_type=initial n_minim_iter=19 stress="0.000779072390741393 -1.687631064939633e-17 -1.4889185770193687e-15 -1.687631064939633e-17 0.0003453143878414473 -4.943928273564064e-16 -1.4889185770193687e-15 -4.943928273564064e-16 -0.0001328415954889992" pbc="T T T"
Si       0.26181689       1.94609078       9.54307664
Si       0.26181689       1.94609078       3.80699713
Si       2.18129011       0.96673368       6.67503689
Si       2.18129011       2.92544789       6.67503689
Si       0.26751872      -0.00000000      -0.00000000
Si       2.17438275      -0.00000000      -0.00000000
6
Lattice="3.8144492207650975 -2.2996617200880576e-16 -1.5491242306153067e-14 2.1905037760711586e-16 3.8899941017211606 -3.478529373721632e-15 -4.296213891326745e-14 -7.16777834165912e-15 13.356862806151566" Properties=species:S:1:pos:R:3 unique_starting_index=12 config_type=initial n_minim_iter=20 stress="0.0004391674191302633 1.8993488750569868e-17 -1.5740024611865619e-15 1.8993488750569868e-17 -0.0009369964687439446 -4.778675669858711e-16 -1.5740024611865619e-15 -4.778675669858711e-16 0.0002838124106381408" pbc="T T T"
Si       0.26428057       1.94499705       9.54658889
Si       0.26428057       1.94499705       3.81027391
Si       2.17891407       0.96597145       6.67843140
Si       2.17891407       2.92402265       6.67843140
Si       0.26759168      -0.00000000      -0.00000000
Si       2.17495833      -0.00000000      -0.00000000
6
Lattice="3.8119463190629865 -2.2984667935868363e-16 -1.5960137732146738e-14 2.191642316540341e-16 3.8922319368674274 -3.382569439993089e-15 -4.424508482088447e-14 -6.906850403736702e-15 13.35347902041848" Properties=species:S:1:pos:R:3 unique_starting_index=12 config_type=initial n_minim_iter=21 stress="-0.0009074622310344108 -2.5829283279709613e-19 -1.5852268520465987e-15 -2.5829283279709613e-19 -0.0006380992957763345 -5.422041466400314e-16 -1.5852268520465987e-15 -5.422041466400314e-16 0.0001707147065311591" pbc="T T T"
Si       0.26687050       1.94611597       9.54713761
Si       0.26687050       1.94611597       3.80634141
Si       2.17510450       0.96681663       6.67673951
Si       2.17510450       2.92541531       6.67673951
Si       0.26709060      -0.00000000      -0.00000000
Si       2.17308971      -0.00000000      -0.00000000
