2
Lattice="2.495276695658793 2.536285292803691e-17 2.495276695658793 2.495276695658793 2.495276695658793 3.839824623938569e-18 1.5386679304464915e-16 2.495276695658793 2.495276695658793" Properties=species:S:1:pos:R:3 n_minim_iter=1 energy=-325.34793600326367 free_energy=-325.34793600326367 pbc="T T T"
Si       0.00000000       0.00000000       0.00000000
Si       1.24763835       1.24763835       1.24763835
