8
Lattice="6.30344620985687 0.0 0.0 0.0 4.513479188692485 5.751224651085661e-14 0.0 -8.032059906190316e-14 6.303446209856868" Properties=species:S:1:pos:R:3 unique_starting_index=2 config_type=initial n_minim_iter=1 energy=-1298.5209922288875 free_energy=-1298.5209922288875 pbc="T T T"
Si       3.29759764       1.43076020       4.38611300
Si       3.00592670       1.43076020       1.91631872
Si       4.38665931       3.08271572       3.00538039
Si       1.91686503       3.08271572       3.29705133
Si       6.15764981       3.08271572       1.23438990
Si       0.14587453       3.08271572       5.06804182
Si       5.06858813       1.43076020       6.15710350
Si       1.23493621       1.43076020       0.14532822
8
Lattice="6.025893362087095 0.0 0.0 0.0 4.624725101703355 5.892977877475524e-14 0.0 -7.678392876092636e-14 6.025893362087095" Properties=species:S:1:pos:R:3 unique_starting_index=2 config_type=initial n_minim_iter=2 stress="0.00046490803712112224 -2.3734269625434557e-16 3.041159896295236e-17 -2.3734269625434557e-16 -0.0006785881151174488 3.3634567331308724e-16 3.041159896295236e-17 3.3634567331308724e-16 0.00046490803711942975" pbc="T T T"
Si       3.12664836       1.33984153       4.23972137
Si       2.89931969       1.33984153       1.78520218
Si       4.24024362       3.28488022       2.89879744
Si       1.78572443       3.28488022       3.12612611
Si       5.91226637       3.28488022       1.22677468
Si       0.11370168       3.28488022       4.79814886
Si       4.79867111       1.33984153       5.91174412
Si       1.22729694       1.33984153       0.11317943
8
Lattice="5.802949261634392 0.0 0.0 0.0 4.728179925964632 6.024803440570135e-14 0.0 -7.394310120255407e-14 5.802949261634392" Properties=species:S:1:pos:R:3 unique_starting_index=2 config_type=initial n_minim_iter=3 stress="-0.020415690825889617 -2.0778403733637275e-16 6.601672901413401e-16 -2.0778403733637275e-16 -0.02535759907590889 -6.210314156663649e-17 6.601672901413401e-16 -6.210314156663649e-17 -0.020415690825897472" pbc="T T T"
Si       2.97601363       1.25568513       4.11324059
Si       2.82700755       1.25568513       1.68877473
Si       4.11374352       3.47249137       2.82650463
Si       1.68927766       3.47249137       2.97551070
Si       5.72848219       3.47249137       1.21176596
Si       0.07453900       3.47249137       4.59024936
Si       4.59075229       1.25568513       5.72797926
Si       1.21226889       1.25568513       0.07403607
8
Lattice="5.787638270203675 -3.087630286475898e-79 2.410254309691233e-65 -1.118727378092944e-81 4.929497258483144 6.299021522732529e-14 4.2179450419600844e-65 -7.34965867491396e-14 5.787638270203674" Properties=species:S:1:pos:R:3 unique_starting_index=2 config_type=initial n_minim_iter=4 stress="-0.0050144220559224 4.7969012064679933e-17 1.9124570644446638e-16 4.7969012064679933e-17 -0.016358135025259592 -1.958839716276806e-16 1.9124570644446638e-16 -1.958839716276806e-16 -0.005014422055929199" pbc="T T T"
Si       2.94087247       1.23045393       4.11893532
Si       2.84683754       1.23045393       1.66777147
Si       4.11943693       3.69903975       2.84633593
Si       1.66827308       3.69903975       2.94037086
Si       5.74065667       3.69903975       1.22511619
Si       0.04705333       3.69903975       4.56159061
Si       4.56209221       1.23045393       5.74015507
Si       1.22561779       1.23045393       0.04655173
8
Lattice="5.699704925046431 -3.0198346699681464e-79 2.373634584297899e-65 -9.672805766358284e-82 5.306679734255856 6.81527811500437e-14 4.153860522521742e-65 -7.186999348331711e-14 5.699704925046431" Properties=species:S:1:pos:R:3 unique_starting_index=2 config_type=initial n_minim_iter=5 stress="-0.0024207921366325934 1.867585976119867e-17 7.09199674552415e-16 1.867585976119867e-17 0.0035051952614440604 9.044107086942546e-17 7.09199674552415e-16 9.044107086942546e-17 -0.0024207921366240204" pbc="T T T"
Si       2.85972672       1.24338156       4.05520815
Si       2.84004884       1.24338156       1.64357945
Si       4.05570213       4.06329433       2.83955486
Si       1.64407343       4.06329433       2.85923274
Si       5.68990131       4.06329433       1.20535569
Si       0.00987426       4.06329433       4.49343192
Si       4.49392590       1.24338156       5.68940733
Si       1.20584967       1.24338156       0.00938028
8
Lattice="5.774363451306039 3.1178367212582457e-79 -2.4157825904798726e-65 -7.4525875136854e-82 5.295954823637826 6.808485570801752e-14 6.618524860272117e-65 -7.27310565829258e-14 5.774363451306039" Properties=species:S:1:pos:R:3 unique_starting_index=2 config_type=initial n_minim_iter=6 stress="0.018681701159535963 6.664438913820807e-17 6.80354335813051e-16 6.664438913820807e-17 0.007992232037018468 -2.1503228682874948e-16 6.80354335813051e-16 -2.1503228682874948e-16 0.018681701159539342" pbc="T T T"
Si       2.90014328       1.27823688       4.08635306
Si       2.87429174       1.27823688       1.68708105
Si       4.08685352       4.01771411       2.87379129
Si       1.68758150       4.01771411       2.89964283
Si       5.76147347       4.01771411       1.19917134
Si       0.01296155       4.01771411       4.57426278
Si       4.57476323       1.27823688       5.76097302
Si       1.19967179       1.27823688       0.01246110
8
Lattice="5.696621584342764 -6.083841047642224e-79 4.847504693935949e-65 2.3326801852279355e-82 5.297260957511749 6.733215266696167e-14 -6.312718431198499e-65 -7.280623660645232e-14 5.696621584342764" Properties=species:S:1:pos:R:3 unique_starting_index=2 config_type=initial n_minim_iter=7 stress="0.00367137660435321 6.070884540398853e-17 6.185319099388418e-16 6.070884540398853e-17 0.002327217518113591 1.0328374878820189e-16 6.185319099388418e-16 1.0328374878820189e-16 0.0036713766043488284" pbc="T T T"
Si       2.85842348       1.29898337       4.01404434
Si       2.83826871       1.29898337       1.68166042
Si       4.01453805       3.99827375       2.83777499
Si       1.68215414       3.99827375       2.85792977
Si       5.68657950       3.99827375       1.16573354
Si       0.01011269       3.99827375       4.52997122
Si       4.53046493       1.29898337       5.68608578
Si       1.16622726       1.29898337       0.00961898
8
Lattice="5.677326746005442 -6.050718907690396e-79 4.831085871301501e-65 1.3115909263538248e-82 5.2939197214956115 6.739474519404114e-14 -6.498468061370986e-65 -7.241439539565405e-14 5.677326746005442" Properties=species:S:1:pos:R:3 unique_starting_index=2 config_type=initial n_minim_iter=8 stress="-0.0006452840210181458 3.139369369772599e-17 7.00461624278925e-16 3.139369369772599e-17 0.000460759121867492 9.353043459167069e-18 7.00461624278925e-16 9.353043459167069e-18 -0.0006452840210186455" pbc="T T T"
Si       2.84568743       1.30278603       3.99560710
Si       2.83170968       1.30278603       1.68080593
Si       3.99609914       3.99112986       2.83121764
Si       1.68129797       3.99112986       2.84519539
Si       5.67037305       3.99112986       1.15694372
Si       0.00702406       3.99112986       4.51946931
Si       4.51996135       1.30278603       5.66988101
Si       1.15743576       1.30278603       0.00653202
8
Lattice="5.681409402710788 1.2596315211728163e-77 -1.0362443020877032e-63 -3.7724638261240034e-79 5.267410775263037 6.705402403659607e-14 -1.188837021480484e-63 -7.246877639659741e-14 5.681409402710788" Properties=species:S:1:pos:R:3 unique_starting_index=2 config_type=initial n_minim_iter=9 stress="-0.0009640510432165186 -2.6445750348309467e-17 6.290456373359074e-16 -2.6445750348309467e-17 -0.0018406674496089337 3.2576379299135255e-17 6.290456373359074e-16 3.2576379299135255e-17 -0.0009640510432179395" pbc="T T T"
Si       2.84207997       1.29788894       3.99911532
Si       2.83939985       1.29788894       1.68137971
Si       3.99960772       3.96951802       2.83890745
Si       1.68187210       3.96951802       2.84158757
Si       5.68010455       3.96951802       1.15841062
Si       0.00137527       3.96951802       4.52208441
Si       4.52257680       1.29788894       5.67961216
Si       1.15890302       1.29788894       0.00088287
8
Lattice="5.68365725310663 1.1433230078003862e-77 -9.402441198978172e-64 -3.1753324447107033e-79 5.277387375152098 6.721314229247736e-14 -1.0326408548783042e-63 -7.245249355495232e-14 5.683657253106629" Properties=species:S:1:pos:R:3 unique_starting_index=2 config_type=initial n_minim_iter=10 stress="6.641406227755803e-05 -7.472883115960272e-17 5.88522615738798e-16 -7.472883115960272e-17 -0.0006231337668043588 -5.3695845666155125e-17 5.88522615738798e-16 -5.3695845666155125e-17 6.641406226797191e-05" pbc="T T T"
Si       2.84201921       1.30173951       4.00097964
Si       2.84170849       1.30173951       1.68176288
Si       4.00147222       3.97564404       2.84121590
Si       1.68225547       3.97564404       2.84152662
Si       5.68353711       3.97564404       1.15915101
Si       0.00019058       3.97564404       4.52359151
Si       4.52408410       1.30173951       5.68304452
Si       1.15964360       1.30173951      -0.00030201
8
Lattice="5.688361638418552 8.415869816590155e-78 -6.999969326598292e-64 -2.437180386672404e-79 5.2868813155455685 6.757534331788705e-14 -8.406752309726413e-64 -7.217548168494603e-14 5.688361638418552" Properties=species:S:1:pos:R:3 unique_starting_index=2 config_type=initial n_minim_iter=11 stress="0.0015602096426701136 -2.701410088118751e-17 4.793329735748097e-16 -2.701410088118751e-17 0.0007214481693091904 -7.861430385236909e-17 4.793329735748097e-16 -7.861430385236909e-17 0.001560209642667954" pbc="T T T"
Si       2.84355896       1.31600111       4.00566008
Si       2.84487318       1.31600111       1.68178606
Si       4.00615308       3.97087638       2.84438018
Si       1.68227906       3.97087638       2.84306597
Si       5.68905400       3.97087638       1.16147926
Si      -0.00062186       3.97087638       4.52596688
Si       4.52645988       1.31600111       5.68856100
Si       1.16197226       1.31600111      -0.00111485
8
Lattice="5.684811207424027 7.023779293427742e-76 -5.391797518262936e-62 -3.016085312168599e-77 5.2862898371057225 6.780429118947383e-14 1.9660788253231843e-61 -7.179974579147129e-14 5.684811207424027" Properties=species:S:1:pos:R:3 unique_starting_index=2 config_type=initial n_minim_iter=12 stress="0.0006794297746283463 1.0050661388114508e-16 2.546313941870882e-16 1.0050661388114508e-16 0.0003495489496911971 1.494631933337614e-17 2.546313941870882e-16 1.494631933337614e-17 0.0006794297746256012" pbc="T T T"
Si       2.84211518       1.31901238       4.00308746
Si       2.84276648       1.31901238       1.68080882
Si       4.00358015       3.96727362       2.84227379
Si       1.68130151       3.96727362       2.84162249
Si       5.68517209       3.96727362       1.16068186
Si      -0.00029042       3.96727362       4.52321443
Si       4.52370712       1.31901238       5.68467940
Si       1.16117455       1.31901238      -0.00078311
