2
Lattice="4.686240641292666 2.130675290605161e-17 1.073564035330046e-16 2.1306752906051105e-17 4.686240641292666 -2.920592238605052e-16 2.343120320646333 2.343120320646333 1.2925530498233342" Properties=species:S:1:pos:R:3 cutoff=-1.0 nneightol=1.2 n_minim_iter=1 energy=-325.64290163324114 free_energy=-325.64290163324114 pbc="T T T"
Si      -0.00000000      -1.17156016      -0.32313826
Si      -0.00000000       1.17156016       0.32313826
