2
Lattice="4.5771459248977635 1.2162574775607241e-17 -1.8180156616270656e-16 1.216257477560641e-17 4.5771459248977635 2.343092482909764e-16 2.2885729624488818 2.2885729624488818 1.2450455058631793" Properties=species:S:1:pos:R:3 cutoff=-1.0 nneightol=1.2 n_minim_iter=1 energy=-325.39916520778183 free_energy=-325.39916520778183 pbc="T T T"
Si      -0.00000000      -1.14428648      -0.31126138
Si      -0.00000000       1.14428648       0.31126138
