20
Lattice="5.760282079799883 -3.5248381524227384e-16 -2.206645416934139e-15 1.6867049127522101e-16 2.756409135028494 9.022208589155601e-14 1.6984667310692558e-14 -1.4512339384889442e-12 44.337197988554685" Properties=species:S:1:pos:R:3 unique_starting_index=4 config_type=initial n_minim_iter=1 energy=-3247.4706561914245 free_energy=-3247.4706561914245 pbc="T T T"
Si       3.51331064       0.72176827      27.85749310
Si       3.51331064       2.03464086      16.47970488
Si       1.54095584       0.97797446      24.52488021
Si       1.54095584       1.77843467      19.81231778
Si       2.24697144      -0.65643629      38.64830388
Si       2.24697144       3.41284543       5.68889411
Si       4.21932624       2.35617903      41.98091677
Si       4.21932624       0.40023011       2.35628122
Si       2.37635015       1.96781238       9.08566646
Si       2.37635015       0.78859675      35.25153153
Si       2.33907290       2.17027724      36.70583889
Si       2.33907290       0.58613190       7.63135910
Si       3.38393193       0.58960782      13.08293253
Si       3.38393193       2.16680132      31.25426546
Si       3.42120918       0.79207267      29.79995809
Si       3.42120918       1.96433646      14.53723990
Si       6.06128591       1.91796350      42.00100969
Si       6.06128591       0.83844563       2.33618830
Si      -0.30100383       2.21665020      19.83241070
Si      -0.30100383       0.53975893      24.50478729
20
Lattice="5.758738003813786 -3.5238932997452784e-16 -2.2060539132280773e-15 1.6865911101834247e-16 2.7562231591427193 9.021749061848069e-14 1.6983145185534032e-14 -1.451079886901537e-12 44.33322459518259" Properties=species:S:1:pos:R:3 unique_starting_index=4 config_type=initial n_minim_iter=2 stress="-9.776569330393282e-05 -8.993196159063924e-18 -2.766591134196244e-16 -8.993196159063924e-18 -0.0002268935554351496 -1.6787299496919326e-16 -2.766591134196244e-16 -1.6787299496919326e-16 -0.00024690543609249177" pbc="T T T"
Si       3.51232495       0.72174373      27.85500254
Si       3.51232495       2.03447942      16.47822205
Si       1.54055877       0.97785543      24.52269874
Si       1.54055877       1.77836773      19.81052586
Si       2.24641305      -0.65636784      38.64483435
Si       2.24641305       3.41259100       5.68839024
Si       4.21817924       2.35596700      41.97713815
Si       4.21817924       0.40025615       2.35608644
Si       2.37569622       1.96767057       9.08486590
Si       2.37569622       0.78855259      35.24835870
Si       2.33845198       2.17010696      36.70253930
Si       2.33845198       0.58611620       7.63068529
Si       3.38304178       0.58955899      13.08174640
Si       3.38304178       2.16666417      31.25147819
Si       3.42028602       0.79199538      29.79729759
Si       3.42028602       1.96422778      14.53592700
Si       6.05965448       1.91782478      41.99717113
Si       6.05965448       0.83839838       2.33605347
Si      -0.30091648       2.21650996      19.83055883
Si      -0.30091648       0.53971320      24.50266577
20
Lattice="5.757127511162212 -3.5229078053087525e-16 -2.2054369666655054e-15 1.6868610800417446e-16 2.7566643432396125 9.020390483749978e-14 1.6985702084356642e-14 -1.4517491354203717e-12 44.33989918746413" Properties=species:S:1:pos:R:3 unique_starting_index=4 config_type=initial n_minim_iter=3 stress="-0.0004228300910266293 -5.663960810304432e-17 -2.78701581376122e-16 -5.663960810304432e-17 0.00030466206848195 6.4297640074323356e-18 -2.78701581376122e-16 6.4297640074323356e-18 0.00034101871833298403" pbc="T T T"
Si       3.51121324       0.72193091      27.85920193
Si       3.51121324       2.03473343      16.48069726
Si       1.54022801       0.97786708      24.52643666
Si       1.54022801       1.77879727      19.81346252
Si       2.24591427      -0.65640126      38.65064685
Si       2.24591427       3.41306560       5.68925234
Si       4.21689950       2.35619925      41.98341212
Si       4.21689950       0.40046510       2.35648707
Si       2.37498206       1.96796077       9.08630360
Si       2.37498206       0.78870358      35.25359559
Si       2.33781629       2.17038570      36.70804686
Si       2.33781629       0.58627865       7.63185233
Si       3.38214545       0.58962859      13.08364600
Si       3.38214545       2.16703575      31.25625319
Si       3.41931122       0.79205352      29.80180192
Si       3.41931122       1.96461082      14.53809727
Si       6.05799271       1.91809105      42.00327640
Si       6.05799271       0.83857329       2.33662278
Si      -0.30086520       2.21690547      19.83332681
Si      -0.30086520       0.53975888      24.50657238
20
Lattice="5.749851780152974 -3.5184556319788976e-16 -2.2026497839782765e-15 1.6871049098632311e-16 2.75706280935082 9.022131407375999e-14 1.6978792681822203e-14 -1.4510887630330942e-12 44.32186271123838" Properties=species:S:1:pos:R:3 unique_starting_index=4 config_type=initial n_minim_iter=4 stress="-0.00022942621226133272 -9.006660067294046e-18 -3.884714697446037e-16 -9.006660067294046e-18 0.0010251991538963222 -6.173839568949104e-17 -3.884714697446037e-16 -6.173839568949104e-17 -0.000700461286371022" pbc="T T T"
Si       3.50361478       0.72378412      27.84823807
Si       3.50361478       2.03327869      16.47362464
Si       1.54128251       0.97463225      24.51754610
Si       1.54128251       1.78243056      19.80431661
Si       2.24623700      -0.65474728      38.63455600
Si       2.24623700       3.41181009       5.68730672
Si       4.20856927       2.35316365      41.96524797
Si       4.20856927       0.40389916       2.35661474
Si       2.37075560       1.96765954       9.08386532
Si       2.37075560       0.78940327      35.23799739
Si       2.33531312       2.16904303      36.69240123
Si       2.33531312       0.58801978       7.62946148
Si       3.37909618       0.58912813      13.07706604
Si       3.37909618       2.16793468      31.24479667
Si       3.41453866       0.79051163      29.79039284
Si       3.41453866       1.96655118      14.53146987
Si       6.05170159       1.91721280      41.98093212
Si       6.05170159       0.83985001       2.34093059
Si      -0.30184981       2.21838141      19.82000077
Si      -0.30184981       0.53868140      24.50186194
20
Lattice="5.744457416658925 -3.515154707130351e-16 -2.2005833144344823e-15 1.685008375172599e-16 2.7536366573728013 9.025421198416945e-14 1.6994431943233398e-14 -1.450050463117056e-12 44.362687828203555" Properties=species:S:1:pos:R:3 unique_starting_index=4 config_type=initial n_minim_iter=5 stress="-0.00031059369454696493 -7.989656497361455e-17 -4.402221624536287e-16 -7.989656497361455e-17 -0.0005813381047199265 -2.1182972316178933e-17 -4.402221624536287e-16 -2.1182972316178933e-17 0.0007257887077653688" pbc="T T T"
Si       3.49782299       0.72427561      27.87414050
Si       3.49782299       2.02936104      16.48854733
Si       1.54209183       0.97072642      24.54098794
Si       1.54209183       1.78291023      19.82169989
Si       2.24663443      -0.65254272      38.66989124
Si       2.24663443       3.40617937       5.69279658
Si       4.20236559       2.34754475      42.00304380
Si       4.20236559       0.40609191       2.35964403
Si       2.36755080       1.96485250       9.09318938
Si       2.36755080       0.78878416      35.26949845
Si       2.33349099       2.16513367      36.72549884
Si       2.33349099       0.58850299       7.63718899
Si       3.37690662       0.58803417      13.08815453
Si       3.37690662       2.16560249      31.27453330
Si       3.41096643       0.78831534      29.81853290
Si       3.41096643       1.96532132      14.54415492
Si       6.04698376       1.91391632      42.01542621
Si       6.04698376       0.83972034       2.34726162
Si      -0.30252634       2.21653867      19.83408230
Si      -0.30252634       0.53709799      24.52860553
20
Lattice="5.735637042646469 -3.509757334153294e-16 -2.1972044108286194e-15 1.6855073891276827e-16 2.7544521447849166 9.025391361632024e-14 1.6994835650897538e-14 -1.4505185702568011e-12 44.363741676731024" Properties=species:S:1:pos:R:3 unique_starting_index=4 config_type=initial n_minim_iter=6 stress="-2.6893174852691697e-05 -2.0101422495865005e-16 -2.714246449697769e-16 -2.0101422495865005e-16 0.0007581349659289825 1.0972174949076433e-16 -2.714246449697769e-16 1.0972174949076433e-16 -0.0011111335842791368" pbc="T T T"
Si       3.48088284       0.73131924      27.87843985
Si       3.48088284       2.02313290      16.48530183
Si       1.54670664       0.95775260      24.54561101
Si       1.54670664       1.79669955      19.81813067
Si       2.25475421      -0.64590683      38.66717267
Si       2.25475421       3.40035898       5.69656901
Si       4.18893041       2.33497867      42.00000151
Si       4.18893041       0.41947348       2.36374017
Si       2.35914359       1.96745073       9.09594582
Si       2.35914359       0.78700141      35.26779586
Si       2.33177526       2.16346931      36.72246350
Si       2.33177526       0.59098284       7.64127817
Si       3.37649345       0.59022466      13.08592502
Si       3.37649345       2.16422748      31.27781665
Si       3.40386178       0.78624323      29.82314901
Si       3.40386178       1.96820891      14.54059266
Si       6.03884143       1.91069186      41.99721870
Si       6.03884143       0.84376028       2.36652298
Si      -0.30320438       2.22098636      19.81534786
Si      -0.30320438       0.53346579      24.54839382
20
Lattice="5.741235707202069 -3.5131832751323695e-16 -2.19934914390096e-15 1.6842290507640483e-16 2.7523630872879385 9.013441483453134e-14 1.7006499075406987e-14 -1.4523395665529134e-12 44.39418817016184" Properties=species:S:1:pos:R:3 unique_starting_index=4 config_type=initial n_minim_iter=7 stress="0.00024485406717056894 -1.4480851614390888e-16 -1.9964583947053669e-16 -1.4480851614390888e-16 0.0004915856558500684 9.023331205756891e-17 -1.9964583947053669e-16 9.023331205756891e-17 -0.0008920102757268531" pbc="T T T"
Si       3.48010745       0.73347451      27.90073510
Si       3.48010745       2.01888858      16.49345307
Si       1.54895761       0.95176796      24.56401553
Si       1.54895761       1.80059513      19.83017264
Si       2.26112825      -0.64270704      38.69054716
Si       2.26112825       3.39507012       5.70364101
Si       4.19227809       2.32794950      42.02726673
Si       4.19227809       0.42441359       2.36692144
Si       2.35957422       1.96771581       9.10356349
Si       2.35957422       0.78464728      35.29062468
Si       2.33483030       2.16178988      36.74761342
Si       2.33483030       0.59057321       7.64657475
Si       3.38166149       0.59153426      13.09353059
Si       3.38166149       2.16082883      31.30065758
Si       3.40640541       0.78560833      29.84366883
Si       3.40640541       1.96675475      14.55051934
Si       6.04351470       1.90800118      42.01927394
Si       6.04351470       0.84436191       2.37491423
Si      -0.30227899       2.22054346      19.82217986
Si      -0.30227899       0.53181963      24.57200831
20
Lattice="5.753906973583274 -3.520937090407602e-16 -2.204203245054248e-15 1.6837957014075154e-16 2.751654908805756 9.006349546853057e-14 1.7031407560670197e-14 -1.4552367620427066e-12 44.45920989961389" Properties=species:S:1:pos:R:3 unique_starting_index=4 config_type=initial n_minim_iter=8 stress="0.00044360829046332794 -1.6292660487465248e-16 -2.674961489519948e-16 -1.6292660487465248e-16 -0.00012308715090117385 1.667415005720442e-16 -2.674961489519948e-16 1.667415005720442e-16 0.00021214026910019245" pbc="T T T"
Si       3.48253928       0.73703082      27.94587119
Si       3.48253928       2.01462409      16.51333871
Si       1.55165645       0.94405040      24.60217580
Si       1.55165645       1.80760451      19.85703410
Si       2.27136770      -0.63879664      38.74294366
Si       2.27136770       3.39045155       5.71626624
Si       4.20225052       2.31987785      42.08663905
Si       4.20225052       0.43177706       2.37257085
Si       2.36207740       1.97000016       9.11692510
Si       2.36207740       0.78165475      35.34228480
Si       2.34130561       2.16146124      36.79847053
Si       2.34130561       0.59019366       7.66073937
Si       3.39182957       0.59417271      13.11267985
Si       3.39182957       2.15748220      31.34653005
Si       3.41260136       0.78563379      29.89034432
Si       3.41260136       1.96602112      14.56886558
Si       6.05386288       1.90608547      42.07240993
Si       6.05386288       0.84556944       2.38679997
Si      -0.29995591       2.22139689      19.84280498
Si      -0.29995591       0.53025802      24.61640492
20
Lattice="5.753427907030315 -3.5206439394750606e-16 -2.2040197245254303e-15 1.6838335139020733e-16 2.751716701893944 9.004699945772208e-14 1.703297659069402e-14 -1.4556686762830723e-12 44.463305734613066" Properties=species:S:1:pos:R:3 unique_starting_index=4 config_type=initial n_minim_iter=9 stress="-0.0006466639385630137 -2.0881710535823415e-16 -2.4958691029411293e-16 -2.0881710535823415e-16 4.240493519588373e-05 1.280094002293414e-16 -2.4958691029411293e-16 1.280094002293414e-16 -9.880163115366248e-06" pbc="T T T"
Si       3.48038362       0.73905461      27.95079307
Si       3.48038362       2.01266209      16.51251267
Si       1.55128661       0.93985691      24.60576595
Si       1.55128661       1.81185979      19.85753978
Si       2.27304429      -0.63680374      38.74416554
Si       2.27304429       3.38852044       5.71914020
Si       4.20214130       2.31571527      42.08919265
Si       4.20214130       0.43600144       2.37411308
Si       2.36027030       1.96947467       9.11946151
Si       2.36027030       0.78224204      35.34384422
Si       2.34230907       2.15942177      36.80040922
Si       2.34230907       0.59229493       7.66289651
Si       3.39315761       0.59361632      13.11219135
Si       3.39315761       2.15810039      31.35111438
Si       3.41111884       0.78356342      29.89454938
Si       3.41111884       1.96815328      14.56875635
Si       6.05279454       1.90534656      42.07351636
Si       6.05279454       0.84637015       2.38978937
Si      -0.29936664       2.22222850      19.84186350
Si      -0.29936664       0.52948820      24.62144224
20
Lattice="5.760355107977323 -3.524882839905502e-16 -2.2066733925246852e-15 1.6839267676596672e-16 2.751869096961609 9.003618120485525e-14 1.7027189949325543e-14 -1.4554281787496228e-12 44.4482001420599" Properties=species:S:1:pos:R:3 unique_starting_index=4 config_type=initial n_minim_iter=10 stress="0.00046120180491361325 -2.1965535508610104e-16 -3.35943484249331e-16 -2.1965535508610104e-16 7.191261882745873e-05 -1.311688340383689e-16 -3.35943484249331e-16 -1.311688340383689e-16 -0.0002340405008105114" pbc="T T T"
Si       3.48411554       0.74232134      27.94453398
Si       3.48411554       2.00954776      16.50366616
Si       1.55239715       0.93311001      24.59952012
Si       1.55239715       1.81875909      19.84868002
Si       2.27623957      -0.63361321      38.72776623
Si       2.27623957       3.38548231       5.72043391
Si       4.20795795       2.30904456      42.07278009
Si       4.20795795       0.44282454       2.37542005
Si       2.36021442       1.96976643       9.12060625
Si       2.36021442       0.78210266      35.32759389
Si       2.34811274       2.15682860      36.78325051
Si       2.34811274       0.59504049       7.66494964
Si       3.40014069       0.59383188      13.10349382
Si       3.40014069       2.15803721      31.34470632
Si       3.41224237       0.78089405      29.88904971
Si       3.41224237       1.97097504      14.55915043
Si       6.06105899       1.90434926      42.05929035
Si       6.06105899       0.84751983       2.38890979
Si      -0.30070389       2.22345438      19.83519028
Si      -0.30070389       0.52841472      24.61300986
20
Lattice="5.768603107219104 -3.529929964682698e-16 -2.2098330311454336e-15 1.682692251452272e-16 2.7498516535275646 8.99576379400085e-14 1.7015092774737755e-14 -1.454595760333858e-12 44.41662137663635" Properties=species:S:1:pos:R:3 unique_starting_index=4 config_type=initial n_minim_iter=11 stress="0.0013926104672839174 -2.737061797331445e-16 -1.2078053354372785e-16 -2.737061797331445e-16 -5.182764941437393e-06 3.7413995999072254e-17 -1.2078053354372785e-16 3.7413995999072254e-17 0.00018960282945860993" pbc="T T T"
Si       3.48767833       0.75306568      27.93668512
Si       3.48767833       1.99678597      16.47993626
Si       1.55270837       0.90926834      24.58948511
Si       1.55270837       1.84058331      19.82713627
Si       2.28092478      -0.62186014      38.68824695
Si       2.28092478       3.37171180       5.72837443
Si       4.21589474       2.28419417      42.03544696
Si       4.21589474       0.46565748       2.38117442
Si       2.35328729       1.97302005       9.13010173
Si       2.35328729       0.77683160      35.28651965
Si       2.36190990       2.14960280      36.74342816
Si       2.36190990       0.60024886       7.67319321
Si       3.41531581       0.59809422      13.07820896
Si       3.41531581       2.15175743      31.33841241
Si       3.40669321       0.77467697      29.88150390
Si       3.40669321       1.97517468      14.53511748
Si       6.07414667       1.89877648      42.02973819
Si       6.07414667       0.85107517       2.38688319
Si      -0.30554356       2.22600100      19.82142750
Si      -0.30554356       0.52385065      24.59519388
20
Lattice="5.762157366161163 -3.5259856797176723e-16 -2.2073638005127633e-15 1.6825491063338076e-16 2.7496177261172705 8.993174461348441e-14 1.7014584089748033e-14 -1.4548456210521968e-12 44.41529349268717" Properties=species:S:1:pos:R:3 unique_starting_index=4 config_type=initial n_minim_iter=12 stress="0.00050863038290772 -3.286317577864227e-16 -7.257350387986291e-17 -3.286317577864227e-16 -1.2606065782427019e-05 -3.796304211106959e-18 -7.257350387986291e-17 -3.796304211106959e-18 1.0437353123975431e-05" pbc="T T T"
Si       3.48385765       0.75374953      27.93685068
Si       3.48385765       1.99586820      16.47844281
Si       1.55131347       0.90783740      24.58931895
Si       1.55131347       1.84178032      19.82597454
Si       2.27829971      -0.62105934      38.68608956
Si       2.27829971       3.37067706       5.72920393
Si       4.21084389       2.28264627      42.03362129
Si       4.21084389       0.46697146       2.38167220
Si       2.34968708       1.97428202       9.13091710
Si       2.34968708       0.77533571      35.28437639
Si       2.36010598       2.14997349      36.74169968
Si       2.36010598       0.59964423       7.67359381
Si       3.41247029       0.59947315      13.07672964
Si       3.41247029       2.15014457      31.33856385
Si       3.40205138       0.77516463      29.88124056
Si       3.40205138       1.97445310      14.53405294
Si       6.06843158       1.89807788      42.02856672
Si       6.06843158       0.85153985       2.38672678
Si      -0.30627422       2.22634871      19.82091997
Si      -0.30627422       0.52326901      24.59437352
20
Lattice="5.756723704621841 -3.5226607075659913e-16 -2.2052822766972944e-15 1.6824228979051121e-16 2.749411476604895 8.983093615248324e-14 1.7017246558349296e-14 -1.4565857677664658e-12 44.422243666944475" Properties=species:S:1:pos:R:3 unique_starting_index=4 config_type=initial n_minim_iter=13 stress="-0.00014929450259041328 -3.7281261544710404e-16 -6.7109428871249145e-18 -3.7281261544710404e-16 1.9516914237384793e-05 9.413639435701683e-17 -6.7109428871249145e-18 9.413639435701683e-17 -6.285001258246881e-06" pbc="T T T"
Si       3.48072463       0.75459086      27.94275889
Si       3.48072463       1.99482061      16.47948477
Si       1.55000812       0.90608125      24.59390732
Si       1.55000812       1.84333022      19.82833635
Si       2.27599908      -0.62011488      38.69060661
Si       2.27599908       3.36952635       5.73163706
Si       4.20671558       2.28078699      42.03945818
Si       4.20671558       0.46862448       2.38278548
Si       2.34607028       1.97539248       9.13334932
Si       2.34607028       0.77401900      35.28889435
Si       2.35899770       2.14988847      36.74652066
Si       2.35899770       0.59952301       7.67572301
Si       3.41065343       0.60068674      13.07777252
Si       3.41065343       2.14872473      31.34447115
Si       3.39772600       0.77518273      29.88684484
Si       3.39772600       1.97422874      14.53539882
Si       6.06394800       1.89719537      42.03520941
Si       6.06394800       0.85221611       2.38703426
Si      -0.30722429       2.22692185      19.82408758
Si      -0.30722429       0.52248963      24.59815609
20
Lattice="5.748998495719833 -3.5179334892291164e-16 -2.202322908287514e-15 1.6821898730869468e-16 2.7490306680042815 8.972112288444119e-14 1.7033012756917288e-14 -1.4594947889523428e-12 44.4634001438218" Properties=species:S:1:pos:R:3 unique_starting_index=4 config_type=initial n_minim_iter=14 stress="-0.0005165982002591121 -4.741347373971676e-16 -1.098046126261351e-17 -4.741347373971676e-16 -4.92718486146623e-06 6.313209784504547e-17 -1.098046126261351e-17 6.313209784504547e-17 -1.5190039917052359e-05" pbc="T T T"
Si       3.47620503       0.75617523      27.97299548
Si       3.47620503       1.99285544      16.49040466
Si       1.54779400       0.90268057      24.61848486
Si       1.54779400       1.84635010      19.84491528
Si       2.27279346      -0.61834011      38.72210473
Si       2.27279346       3.36737077       5.74129541
Si       4.20120450       2.27719590      42.07661535
Si       4.20120450       0.47183477       2.38678479
Si       2.33891713       1.97715679       9.14235582
Si       2.33891713       0.77187388      35.32104432
Si       2.35834389       2.14863103      36.77878826
Si       2.35834389       0.60039963       7.68461188
Si       3.41008136       0.60264145      13.08934425
Si       3.41008136       2.14638922      31.37405589
Si       3.39065461       0.77411570      29.91631195
Si       3.39065461       1.97491497      14.54708819
Si       6.05856633       1.89477996      42.07317168
Si       6.05856633       0.85425071       2.39022846
Si      -0.30956783       2.22876604      19.84147161
Si      -0.30956783       0.52026462      24.62192853
20
Lattice="5.747680823785489 -3.5171271779682825e-16 -2.2018181353103137e-15 1.6822886454753791e-16 2.749192081605266 8.962073845893557e-14 1.7042579257832935e-14 -1.4620094857659132e-12 44.48837277574896" Properties=species:S:1:pos:R:3 unique_starting_index=4 config_type=initial n_minim_iter=15 stress="4.724720883420818e-05 -4.197792407939625e-16 2.9548794564541155e-16 -4.197792407939625e-16 -6.0876366606096905e-06 9.56836675942079e-19 2.9548794564541155e-16 9.56836675942079e-19 1.28964966263315e-05" pbc="T T T"
Si       3.47640732       0.75592991      27.99023649
Si       3.47640732       1.99326217      16.49813629
Si       1.54672254       0.90307766      24.63295114
Si       1.54672254       1.84611442      19.85542163
Si       2.27127350      -0.61866613      38.74232268
Si       2.27127350       3.36785821       5.74605010
Si       4.20095828       2.27767370      42.09960802
Si       4.20095828       0.47151838       2.38876476
Si       2.33610286       1.97695818       9.14649117
Si       2.33610286       0.77223390      35.34188161
Si       2.35885340       2.14711451      36.79915460
Si       2.35885340       0.60207757       7.68921817
Si       3.41157797       0.60236214      13.09769522
Si       3.41157797       2.14682994      31.39067755
Si       3.38882742       0.77251847      29.93340456
Si       3.38882742       1.97667361      14.55496822
Si       6.05884911       1.89372694      42.09693391
Si       6.05884911       0.85546514       2.39143887
Si      -0.31116829       2.23006118      19.85274752
Si      -0.31116829       0.51913090      24.63562526
20
Lattice="5.755477546906345 -3.5218981573646954e-16 -2.2048048993443372e-15 1.6824193806603198e-16 2.749405728731868 8.948496660757575e-14 1.7041031781340088e-14 -1.4641744995163148e-12 44.484333204623475" Properties=species:S:1:pos:R:3 unique_starting_index=4 config_type=initial n_minim_iter=16 stress="0.0004935358839487028 -4.78045114106379e-16 6.666765745059927e-16 -4.78045114106379e-16 0.00017083843233194125 1.5260138270870977e-16 6.666765745059927e-16 1.5260138270870977e-16 0.00019814266915092063" pbc="T T T"
Si       3.48155144       0.75570079      27.98907577
Si       3.48155144       1.99370494      16.49525744
Si       1.54419167       0.90201556      24.63388817
Si       1.54419167       1.84739017      19.85044504
Si       2.27392611      -0.61900207      38.73742404
Si       2.27392611       3.36840780       5.74690917
Si       4.21128587       2.27671842      42.09261164
Si       4.21128587       0.47268731       2.39172156
Si       2.33099898       1.98022578       9.14669292
Si       2.33099898       0.76917995      35.33764028
Si       2.36557005       2.14507237      36.79487451
Si       2.36557005       0.60433336       7.68945869
Si       3.42447857       0.60552292      13.09547368
Si       3.42447857       2.14388281      31.38885953
Si       3.38990750       0.77036950      29.93162530
Si       3.38990750       1.97903623      14.55270791
Si       6.06890205       1.89023275      42.08886174
Si       6.06890205       0.85917297       2.39547146
Si      -0.31342451       2.23387584      19.84669514
Si      -0.31342451       0.51552989      24.63763806
20
Lattice="5.750312901150224 -3.518737801647265e-16 -2.2028264299343445e-15 1.6823699055316088e-16 2.7493248765948395 8.941394283183578e-14 1.702686990054124e-14 -1.4640714767048547e-12 44.447364678753544" Properties=species:S:1:pos:R:3 unique_starting_index=4 config_type=initial n_minim_iter=17 stress="3.6886904279091946e-06 -5.348171772018196e-16 1.0801411024934239e-15 -5.348171772018196e-16 8.864834372861931e-05 1.4159546447644096e-16 1.0801411024934239e-15 1.4159546447644096e-16 0.00018028294886177226" pbc="T T T"
Si       3.48021956       0.75441653      27.96519881
Si       3.48021956       1.99490835      16.48216587
Si       1.53891743       0.90219051      24.61678698
Si       1.53891743       1.84713436      19.83057770
Si       2.27009334      -0.62024591      38.70584821
Si       2.27009334       3.36957079       5.74151647
Si       4.21139548       2.27685295      42.05426004
Si       4.21139548       0.47247192       2.39310464
Si       2.31909769       1.98288637       9.14150962
Si       2.31909769       0.76643851      35.30585506
Si       2.36768111       2.14151323      36.76284313
Si       2.36768111       0.60781165       7.68452155
Si       3.43121521       0.60822393      13.08217272
Si       3.43121521       2.14110094      31.36519196
Si       3.38263179       0.76685079      29.90820389
Si       3.38263179       1.98247409      14.53916079
Si       6.06837251       1.88589138      42.05131480
Si       6.06837251       0.86343349       2.39604988
Si      -0.31805961       2.23809593      19.82763246
Si      -0.31805961       0.51122894      24.61973222
20
Lattice="5.750668730624222 -3.518955541210766e-16 -2.2029627408766143e-15 1.6825682062942706e-16 2.749648939226989 8.947486267949008e-14 1.7020555096341052e-14 -1.4627270681757823e-12 44.43088035680841" Properties=species:S:1:pos:R:3 unique_starting_index=4 config_type=initial n_minim_iter=18 stress="-5.2241324920763685e-05 -5.142179828407579e-16 1.2777226491269048e-15 -5.142179828407579e-16 -0.00021089398657273418 8.805034797605556e-17 1.2777226491269048e-15 8.805034797605556e-17 -0.0004350732674640037" pbc="T T T"
Si       3.48142974       0.75258299      27.95367994
Si       3.48142974       1.99706595      16.47720042
Si       1.53797984       0.90518912      24.60653480
Si       1.53797984       1.84445982      19.82434555
Si       2.26923899      -0.62224148      38.69264059
Si       2.26923899       3.37189042       5.73823976
Si       4.21268889       2.28001359      42.03978573
Si       4.21268889       0.46963535       2.39109463
Si       2.31926758       1.98307907       9.13734844
Si       2.31926758       0.76656987      35.29353192
Si       2.36716451       2.14201864      36.74995932
Si       2.36716451       0.60763030       7.68092103
Si       3.43140115       0.60825460      13.07809174
Si       3.43140115       2.14139434      31.35278862
Si       3.38350422       0.76719417      29.89636121
Si       3.38350422       1.98245477      14.53451914
Si       6.06879522       1.88671656      42.03856067
Si       6.06879522       0.86293238       2.39231969
Si      -0.31812649       2.23775685      19.82312049
Si      -0.31812649       0.51189209      24.60775986
20
Lattice="5.750950528141912 -3.5191279790580526e-16 -2.2030706917012917e-15 1.6828181558708452e-16 2.7500574062273286 8.947057923836239e-14 1.7003072189919616e-14 -1.461528093292141e-12 44.385242543052925" Properties=species:S:1:pos:R:3 unique_starting_index=4 config_type=initial n_minim_iter=19 stress="-6.477072552865323e-05 -5.394757910534714e-16 2.328713441064589e-15 -5.394757910534714e-16 0.00036034365462929554 1.1781757464025076e-16 2.328713441064589e-15 1.1781757464025076e-16 0.0006360716309618283" pbc="T T T"
Si       3.47418329       0.74590837      27.93112399
Si       3.47418329       2.00414903      16.45411855
Si       1.52719358       0.90214303      24.58144171
Si       1.52719358       1.84791438      19.80380083
Si       2.27676724      -0.62912033      38.64673982
Si       2.27676724       3.37917774       5.73850272
Si       4.22375695       2.27717173      41.99642211
Si       4.22375695       0.47288568       2.38882044
Si       2.28996165       1.99351538       9.13673420
Si       2.28996165       0.75654203      35.24850834
Si       2.37500683       2.13214092      36.70467211
Si       2.37500683       0.61791649       7.68057043
Si       3.46098888       0.61848667      13.05588707
Si       3.46098888       2.13157073      31.32935547
Si       3.37594370       0.75711222      29.87319170
Si       3.37594370       1.99294519      14.51205084
Si       6.07822345       1.88084728      42.00026788
Si       6.07822345       0.86921013       2.38497467
Si      -0.32727292       2.24423883      19.80764660
Si      -0.32727292       0.50581857      24.57759594
20
Lattice="5.7497062435341055 -3.5183665750508665e-16 -2.202594031897276e-15 1.683179604457665e-16 2.75064808464358 8.951956885264095e-14 1.699623775856425e-14 -1.460472275713359e-12 44.3674017734575" Properties=species:S:1:pos:R:3 unique_starting_index=4 config_type=initial n_minim_iter=20 stress="-4.002282142133613e-05 -5.794071974333225e-16 2.680905394131681e-15 -5.794071974333225e-16 -0.00012178772017360886 2.8263307464912937e-16 2.680905394131681e-15 2.8263307464912937e-16 -0.0001930726837175988" pbc="T T T"
Si       3.46270589       0.73816473      27.91598447
Si       3.46270589       2.01248335      16.45141730
Si       1.52728219       0.90867829      24.56512878
Si       1.52728219       1.84196979      19.80227299
Si       2.28700035      -0.63715931      38.63511819
Si       2.28700035       3.38780739       5.73228358
Si       4.22242405       2.28400234      41.98597388
Si       4.22242405       0.46664575       2.38142790
Si       2.28415213       1.99549719       9.13026929
Si       2.28415213       0.75515089      35.23713248
Si       2.36959871       2.13107967      36.69189241
Si       2.36959871       0.61956841       7.67550937
Si       3.46555412       0.62017315      13.05343160
Si       3.46555412       2.13047493      31.31397018
Si       3.38010754       0.75575563      29.85921025
Si       3.38010754       1.99489245      14.50819152
Si       6.07595378       1.88309468      41.98258350
Si       6.07595378       0.86755341       2.38481827
Si      -0.32624753       2.24287745      19.79888261
Si      -0.32624753       0.50777063      24.56851916
20
Lattice="5.749541031716869 -3.51826547845376e-16 -2.2025307426530554e-15 1.683207636495095e-16 2.7506938945321124 8.952878475675896e-14 1.6993004900116102e-14 -1.460073591419592e-12 44.35896263935715" Properties=species:S:1:pos:R:3 unique_starting_index=4 config_type=initial n_minim_iter=21 stress="-1.2108588430362392e-05 -7.118243797878409e-16 2.4850551880410105e-15 -7.118243797878409e-16 1.72200076463843e-05 2.717658205207955e-16 2.4850551880410105e-15 2.717658205207955e-16 1.8260836832304852e-05" pbc="T T T"
Si       3.46042169       0.73667586      27.91151092
Si       3.46042169       2.01401804      16.44745172
Si       1.52530757       0.90814682      24.56062229
Si       1.52530757       1.84254707      19.79834035
Si       2.28911934      -0.63867109      38.62693304
Si       2.28911934       3.38936499       5.73202960
Si       4.22423346       2.28349377      41.97782167
Si       4.22423346       0.46720012       2.38114097
Si       2.27793495       1.99766671       9.12986182
Si       2.27793495       0.75302719      35.22910082
Si       2.37083637       2.12899927      36.68368984
Si       2.37083637       0.62169462       7.67527280
Si       3.47160609       0.62231976      13.04961950
Si       3.47160609       2.12837413      31.30934314
Si       3.37870466       0.75365232      29.85475412
Si       3.37870466       1.99704157      14.50420852
Si       6.07761418       1.88169192      41.97402550
Si       6.07761418       0.86900198       2.38493714
Si      -0.32807315       2.24434893      19.79454418
Si      -0.32807315       0.50634497      24.56441846
