1
Lattice="4.965963696374967 -0.13327685421089847 -3.0756762328002326e-10 0.21073601548932816 4.963280012789742 -9.945703549006147e-10 -2.588349855697813 -2.415001578600983 3.485221736625427" Properties=species:S:1:pos:R:3:spacegroup_kinds:I:1 spacegroup="P 1" unit_cell=conventional occupancy="_JSON {\"0\": {\"In\": 1}}" n_minim_iter=7 pbc="T T T"
In       0.00000000       0.00000000       0.00000000        0
