18
Lattice="0.0 -2.7457271855470995 2.7457271855470995 2.7457271855470995 -2.7457271855470995 0.0 22.077920303725264 22.077920303725264 22.077920303725264" Properties=species:S:1:pos:R:3:travel:I:3:map_shift:I:3:n_neighb:I:1:orig_index:I:1:forces:R:3 cutoff=2.0 nneightol=1.2 bulk_struct_test=bulk_Si_diamond supercell_a1_in_bulk_lattice_coords="1 -1 0" n_minim_iter=0 pbc="T T T"
Si       0.03822876       0.03822876       0.03822876        0        0        0        0        0        0       21        1      -0.00053032      -0.00053032      -0.00053032
Si       1.40557766       1.40557766       1.40557766        0        0        0        0        0        0       21        2       0.00092750       0.00092750       0.00092750
Si       2.77081574       0.02508855       2.77081574        0       -1        0        0        0        0       20        3      -0.00196391      -0.00196391      -0.00196391
Si      -1.23517860      -3.98090579      -1.23517860        0       -1        1        0        0        0       20        4       0.00103265       0.00103265       0.00103265
Si      -2.70142413       0.04430306      -2.70142413        1       -1        1        0        0        0       20        5      -0.00062563      -0.00062563      -0.00062563
Si      -1.31870528       1.42702190      -1.31870528        1       -1        1        0        0        0       20        6      -0.00016164      -0.00016164      -0.00016164
Si       5.48791245       5.48791245       5.48791245        0        0        0        0        0        0       21        1      -0.00210591      -0.00210591      -0.00210591
Si       6.85372585       6.85372585       6.85372585        0        0        0        0        0        0       21        2       0.00023926       0.00023926       0.00023926
Si       8.21916927       5.47344208       8.21916927        0       -1        0        0        0        0       20        3      -0.00141234      -0.00141234      -0.00141234
Si       4.13660307       1.39087588       4.13660307        0       -1        1        0        0        0       20        4       0.00141234       0.00141234       0.00141234
Si       2.75631930       5.50204648       2.75631930        1       -1        1        0        0        0       20        5      -0.00023926      -0.00023926      -0.00023926
Si       4.12213270       6.86785989       4.12213270        1       -1        1        0        0        0       20        6       0.00210591       0.00210591       0.00210591
Si      10.92875043      10.92875043      10.92875043        0        0        0        0        0        0       21        1       0.00016164       0.00016164       0.00016164
Si      12.31146928      12.31146928      12.31146928        0        0        0        0        0        0       21        2       0.00062563       0.00062563       0.00062563
Si      13.59095094      10.84522375      13.59095094        0       -1        0        0        0        0       20        3      -0.00103265      -0.00103265      -0.00103265
Si       9.58495660       6.83922941       9.58495660        0       -1        1        0        0        0       20        4       0.00196391       0.00196391       0.00196391
Si       8.20446749      10.95019468       8.20446749        1       -1        1        0        0        0       20        5      -0.00092750      -0.00092750      -0.00092750
Si       9.57181638      12.31754357       9.57181638        1       -1        1        0        0        0       20        6       0.00053032       0.00053032       0.00053032
