4
Lattice="1.7412026218705943 -3.0158514073520095 -4.9509026517189485e-18 1.7412026218705945 3.0158514073520095 4.950902651718921e-18 4.642459808177639e-32 -9.569713371014667e-18 5.829408406547755" Properties=species:S:1:pos:R:3 cutoff=-1.0 nneightol=1.2 n_minim_iter=1 energy=-651.0343265930726 free_energy=-651.0343265930726 pbc="T T T"
Si       1.74120262       1.00528380       0.37333355
Si       1.74120262      -1.00528380       3.28803775
Si       1.74120262       1.00528380       2.54137065
Si       1.74120262      -1.00528380      -0.37333355
4
Lattice="1.7390977269637038 -3.012205622428683 -1.8405668095117663e-17 1.739097726963704 3.012205622428683 1.8405668095117724e-17 4.579285776216273e-32 1.6582293297131073e-17 5.843528047406415" Properties=species:S:1:pos:R:3 cutoff=-1.0 nneightol=1.2 n_minim_iter=2 stress="-0.0804051145579466 -4.662816482459395e-16 1.7755145786645518e-16 -4.662816482459395e-16 -0.08040511455794902 -9.738237780766281e-17 1.7755145786645518e-16 -9.738237780766281e-17 -0.08025823824202623" pbc="T T T"
Si       1.73909773       1.00406854       0.37368243
Si       1.73909773      -1.00406854       3.29544646
Si       1.73909773       1.00406854       2.54808159
Si       1.73909773      -1.00406854      -0.37368243
4
Lattice="1.7393606882760917 -3.012661084782164 -8.89613884171581e-18 1.739360688276092 3.012661084782164 8.896138841715932e-18 3.138428104109824e-32 -1.788890872726381e-18 5.841761299819978" Properties=species:S:1:pos:R:3 cutoff=-1.0 nneightol=1.2 n_minim_iter=3 stress="-0.0805263467619305 2.8279367159300736e-16 1.583618748079982e-16 2.8279367159300736e-16 -0.08052634676193322 2.4296200664188356e-16 1.583618748079982e-16 2.4296200664188356e-16 -0.08023466504802396" pbc="T T T"
Si       1.73936069       1.00422036       0.37277129
Si       1.73936069      -1.00422036       3.29365194
Si       1.73936069       1.00422036       2.54810936
Si       1.73936069      -1.00422036      -0.37277129
