4
Lattice="4.534351450646171 -0.21346563327101936 6.933330969833782e-13 1.753338136575447 4.187089207718767 2.4132906067326706e-12 -3.1438447936112683 -1.986811787225181 2.602831052986581" Properties=species:S:1:pos:R:3:tags:I:1 spacegroup="P 1" unit_cell=conventional n_minim_iter=1 energy=-1929.2898883030634 free_energy=-1929.2898883030634 pbc="T T T"
Ti       0.00000000       0.00000000       0.00000000        0
Al       3.14384479       1.98681179       0.00000000        1
Al       2.26717573      -0.10673282       1.30141553        2
Al       0.87666907       2.09354460       1.30141553        3
4
Lattice="4.5226826521013965 -0.2282104120511707 6.840853372606191e-13 1.7350122656346705 4.1828782915457525 2.407903930897042e-12 -3.1288474588684934 -1.9773339397486023 2.6090616001999494" Properties=species:S:1:pos:R:3:tags:I:1 spacegroup="P 1" unit_cell=conventional n_minim_iter=2 stress="2.0036102918996623 0.021071452993365245 1.5710100521857497e-14 0.021071452993365245 1.9835842392948941 9.993215687693788e-15 1.5710100521857497e-14 9.993215687693788e-15 1.9702677386628824" pbc="T T T"
Ti       0.00000000       0.00000000       0.00000000        0
Al       3.12884746       1.97733394       0.00000000        1
Al       2.26134133      -0.11410521       1.30453080        2
Al       0.86750613       2.09143915       1.30453080        3
4
Lattice="4.520317037389556 -0.2312079389124979 6.821280944480707e-13 1.7312895493991496 4.1820281832708535 2.406792047590854e-12 -3.1258032933948114 -1.9754101221804896 2.6103317508928705" Properties=species:S:1:pos:R:3:tags:I:1 spacegroup="P 1" unit_cell=conventional n_minim_iter=3 stress="1.9765831038141888 -0.00560021675563957 -1.1485397371157354e-14 -0.00560021675563957 1.9819054816958106 1.4879803469150956e-14 -1.1485397371157354e-14 1.4879803469150956e-14 1.9854446438973927" pbc="T T T"
Ti       0.00000000       0.00000000       0.00000000        0
Al       3.12580329       1.97541012       0.00000000        1
Al       2.26015852      -0.11560397       1.30516588        2
Al       0.86564477       2.09101409       1.30516588        3
