4
Lattice="4.315507113400289 -0.05814162229103906 7.278387186430166e-13 1.7997003493273867 3.9227618773871575 2.283927309957636e-12 -3.0576037313642512 -1.9323101275492405 2.3546165477565935" Properties=species:S:1:pos:R:3:tags:I:1 spacegroup="P 1" unit_cell=conventional n_minim_iter=1 energy=-1963.0136056507777 free_energy=-1963.0136056507777 pbc="T T T"
Ti       0.00000000       0.00000000       0.00000000        0
Al       3.05760373       1.93231013       0.00000000        1
Al       2.15775356      -0.02907081       1.17730827        2
Al       0.89985017       1.96138094       1.17730827        3
4
Lattice="4.3216047768368515 -0.050799665520641864 7.324965471152222e-13 1.8089487906672672 3.9251181798691848 2.2868706233255323e-12 -3.065276783752472 -1.9371592571754503 2.3516676432956425" Properties=species:S:1:pos:R:3:tags:I:1 spacegroup="P 1" unit_cell=conventional n_minim_iter=2 stress="-3.1202999562830755 -0.05204590161886172 -4.322671680890455e-14 -0.05204590161886172 -3.070836164489005 -2.860010283009158e-14 -4.322671680890455e-14 -2.860010283009158e-14 -3.0379447790669234" pbc="T T T"
Ti       0.00000000       0.00000000       0.00000000        0
Al       3.06527678       1.93715926       0.00000000        1
Al       2.16080239      -0.02539983       1.17583382        2
Al       0.90447440       1.96255909       1.17583382        3
4
Lattice="4.3218970289342895 -0.05044819001023138 7.327227607815482e-13 1.809391681243812 3.9252312915842404 2.287019866003637e-12 -3.0656443550894634 -1.9373915507881834 2.351526656372203" Properties=species:S:1:pos:R:3:tags:I:1 spacegroup="P 1" unit_cell=conventional n_minim_iter=3 stress="-3.065720561368048 -0.0004889965529982632 -7.317744292031193e-14 -0.0004889965529982632 -3.065255824993194 -3.898819537775636e-14 -7.317744292031193e-14 -3.898819537775636e-14 -3.0649467944335465" pbc="T T T"
Ti       0.00000000       0.00000000       0.00000000        0
Al       3.06564436       1.93739155       0.00000000        1
Al       2.16094851      -0.02522410       1.17576333        2
Al       0.90469584       1.96261565       1.17576333        3
