4
Lattice="4.175924965743166 0.008104824566526413 7.411359433030702e-13 1.7996261590147862 3.7682569837377073 2.2019673991048515e-12 -2.987775562379368 -1.8881809041532291 2.2240470025919095" Properties=species:S:1:pos:R:3:tags:I:1 spacegroup="P 1" unit_cell=conventional n_minim_iter=1 energy=-1735.9397368879463 free_energy=-1735.9397368879463 pbc="T T T"
Ti       0.00000000       0.00000000       0.00000000        0
Al       2.98777556       1.88818090       0.00000000        1
Al       2.08796248       0.00405241       1.11202350        2
Al       0.89981308       1.88412849       1.11202350        3
4
Lattice="4.287314657556749 0.13718847058980446 8.253786233636849e-13 1.9640241729186487 3.8134625601354655 2.2535329077804976e-12 -3.125669415238081 -1.9753255153637226 2.174434975887295" Properties=species:S:1:pos:R:3:tags:I:1 spacegroup="P 1" unit_cell=conventional n_minim_iter=2 stress="-17.352354861252007 -7.880916908248949 -6.705858410737458e-12 -7.880916908248949 -9.8624272977374 -3.1191411702481538e-12 -6.705858410737458e-12 -3.1191411702481538e-12 -4.881933782515912" pbc="T T T"
Ti       0.00000000       0.00000000       0.00000000        0
Al       3.12566942       1.97532552       0.00000000        1
Al       2.14365733       0.06859424       1.08721749        2
Al       0.98201209       1.90673128       1.08721749        3
4
Lattice="4.32380824398318 0.1784550267414146 8.523435721957281e-13 2.0169595600087655 3.828712324084359 2.2709251826055783e-12 -3.170383901996352 -2.003583675413967 2.159046617579906" Properties=species:S:1:pos:R:3:tags:I:1 spacegroup="P 1" unit_cell=conventional n_minim_iter=3 stress="13.56280557574779 1.2985165670993843 4.078994176595423e-13 1.2985165670993843 12.328711225962229 1.52272375479049e-12 4.078994176595423e-13 1.52272375479049e-12 11.508089283472573" pbc="T T T"
Ti       0.00000000       0.00000000       0.00000000        0
Al       3.17038390       2.00358368       0.00000000        1
Al       2.16190412       0.08922751       1.07952331        2
Al       1.00847978       1.91435616       1.07952331        3
4
Lattice="4.318603709585517 0.17259867732535267 8.485077303473209e-13 2.009436264241042 3.8265250820833865 2.2683804441080817e-12 -3.164019986913659 -1.999561879705451 2.1612168136260506" Properties=species:S:1:pos:R:3:tags:I:1 spacegroup="P 1" unit_cell=conventional n_minim_iter=4 stress="9.848732458535446 0.06972142869391523 -8.93790643277698e-13 0.06972142869391523 9.782470060819008 1.2602744471236496e-12 -8.93790643277698e-13 1.2602744471236496e-12 9.738408293955462" pbc="T T T"
Ti       0.00000000       0.00000000       0.00000000        0
Al       3.16401999       1.99956188       0.00000000        1
Al       2.15930185       0.08629934       1.08060841        2
Al       1.00471813       1.91326254       1.08060841        3
4
Lattice="4.318308824164972 0.17226657691208275 8.482547247690939e-13 2.0090097432169616 3.826401276139424 2.2683354049495004e-12 -3.1636592836913486 -1.9993339265268346 2.161340015206868" Properties=species:S:1:pos:R:3:tags:I:1 spacegroup="P 1" unit_cell=conventional n_minim_iter=5 stress="9.631519995941769 -0.0009543528809247421 7.687016624830065e-15 -0.0009543528809247421 9.632427001310342 -3.485660431390219e-14 7.687016624830065e-15 -3.485660431390219e-14 9.633030122544927" pbc="T T T"
Ti       0.00000000       0.00000000       0.00000000        0
Al       3.16365928       1.99933393       0.00000000        1
Al       2.15915441       0.08613329       1.08067001        2
Al       1.00450487       1.91320064       1.08067001        3
