80
Lattice="11.755483960318193 0.003804752864529521 0.002627128388677982 6.453671649638002 9.825555447713965 0.002627128388678433 6.4536716496380055 3.483712513603263 9.187235377439135" Properties=species:S:1:pos:R:3 pbc="T T T"
In      10.57102682       5.70627396       3.94010198
In      16.44876880       5.70817634       3.94141554
In      13.79786264      10.61905168       3.94141554
In      19.67560462      10.62095406       3.94272911
In      13.79786264       7.44813022       8.53371967
In      19.67560462       7.45003259       8.53503323
In      17.02469847      12.36090794       8.53503323
In      22.90244045      12.36281032       8.53634680
In       7.92609363       4.27853059       2.95426525
In      13.80383561       4.28043297       2.95557881
In      11.15292945       9.19130831       2.95557881
In      17.03067143       9.19321069       2.95689238
In      11.15292945       6.02038685       7.54788294
In      17.03067143       6.02228922       7.54919650
In      14.37976528      10.93316457       7.54919650
In      20.25750726      10.93506695       7.55051007
In       4.40532001       2.37800578       1.64197957
In      10.28306199       2.37990816       1.64329313
In       7.63215583       7.29078350       1.64329313
In      13.50989781       7.29268588       1.64460670
In       7.63215583       4.11986204       6.23559726
In      13.50989781       4.12176441       6.23691082
In      10.85899166       9.03263976       6.23691082
In      16.73673364       9.03454214       6.23822439
In       1.76038681       0.95026241       0.65614284
In       7.63812879       0.95216479       0.65745640
In       4.98722263       5.86304013       0.65745640
In      10.86496461       5.86494251       0.65876997
In       4.98722263       2.69211867       5.24976053
In      10.86496461       2.69402104       5.25107409
In       8.21405846       7.60489639       5.25107409
In      14.09180044       7.60679877       5.25238766
O        6.03230794       2.31046503       0.21505063
O       11.89946638       2.31236398       0.21636182
O        9.24856022       7.22323932       0.21636182
O       15.12630220       7.22514170       0.21767539
O        9.24856022       4.05231786       4.80866595
O       15.12630220       4.05422023       4.80997951
O       12.47539605       8.96509558       4.80997951
O       18.35313803       8.96699796       4.81129308
O        7.09560450       5.12098255       1.15037477
O       12.97334648       5.12288493       1.15168833
O       10.32244032      10.03376027       1.15168833
O       16.20018230      10.03566265       1.15300190
O       10.32244032       6.86283881       5.74399246
O       16.20018230       6.86474118       5.74530602
O       13.54927615      11.77561653       5.74530602
O       19.42701813      11.77751891       5.74661959
O        8.17468013       2.18188133       2.51185710
O       14.05242211       2.18378371       2.51317066
O       11.40151595       7.09465905       2.51317066
O       17.27925793       7.09656143       2.51448423
O       11.40151595       3.92373759       7.10547479
O       17.27925793       3.92563996       7.10678835
O       14.62835178       8.83651531       7.10678835
O       20.50609376       8.83841769       7.10810192
O        4.15673351       4.47465504       2.08438772
O       10.03447549       4.47655742       2.08570128
O        7.38356933       9.38743276       2.08570128
O       13.26131131       9.38933514       2.08701485
O        7.38356933       6.21651130       6.67800541
O       13.26131131       6.21841367       6.67931897
O       10.61040516      11.12928902       6.67931897
O       16.48814714      11.13119140       6.68063254
O        6.30968924       4.34607477       4.38119657
O       12.18743122       4.34797715       4.38251013
O        9.53652506       9.25885249       4.38251013
O       15.41426704       9.26075487       4.38382370
O        9.53652506       6.08793103       8.97481426
O       15.41426704       6.08983340       8.97612782
O       12.76336089      11.00070875       8.97612782
O       18.64110287      11.00261113       8.97744139
O        5.23580914       1.53555382       3.44587005
O       11.11355112       1.53745620       3.44718361
O        8.46264496       6.44833154       3.44718361
O       14.34038694       6.45023392       3.44849718
O        8.46264496       3.27741008       8.03948774
O       14.34038694       3.27931245       8.04080130
O       11.68948079       8.19018780       8.04080130
O       17.56722277       8.19209018       8.04211487
