8
Lattice="5.34438 0.0 0.0 0.0 5.35473 -3.2788264773991526e-16 0.0 3.2788264773991536e-16 5.35473" Properties=species:S:1:pos:R:3 unique_starting_index=2 config_type=initial n_minim_iter=1 pbc="T T T"
Si       2.76078165       1.74143209       3.47396141
Si       2.58359835       1.74143209       1.88076859
Si       3.46724669       3.61329791       2.58860178
Si       1.87713331       3.61329791       2.76612822
Si       5.25578835       3.61329791       0.79659641
Si       0.08859165       3.61329791       4.55813359
Si       4.54932331       1.74143209       5.26596678
Si       0.79505669       1.74143209       0.08876322
8
Lattice="5.375529065456595 0.0 0.0 0.0 5.371635816380759 -3.2891783043579874e-16 0.0 3.2977537291279804e-16 5.385640547828165" Properties=species:S:1:pos:R:3 unique_starting_index=2 config_type=initial n_minim_iter=2 pbc="T T T"
Si       2.77695843       1.74701702       3.49460257
Si       2.59857063       1.74701702       1.89103798
Si       3.48804678       3.62461942       2.60345773
Si       1.88748229       3.62461942       2.78218282
Si       5.28633516       3.62461879       0.80178230
Si       0.08919390       3.62461879       4.58385825
Si       4.57524682       1.74701640       5.29627800
Si       0.80028225       1.74701640       0.08936254
8
Lattice="5.703457040600809 0.0 0.0 0.0 5.553453496995422 -3.4006175449075684e-16 0.0 3.4967127185930654e-16 5.710737353278263" Properties=species:S:1:pos:R:3 unique_starting_index=2 config_type=initial n_minim_iter=3 pbc="T T T"
Si       2.94734882       1.80716322       3.71211047
Si       2.75610822       1.80716322       1.99862688
Si       3.70744130       3.74629732       2.75961662
Si       1.99601574       3.74629732       2.95112073
Si       5.60783674       3.74629028       0.85674179
Si       0.09562030       3.74629028       4.85399556
Si       4.84774426       1.80715618       5.61498530
Si       0.85571278       1.80715618       0.09575205
8
Lattice="5.731436246063853 0.0 0.0 0.0 5.686835373801272 -3.495457198768942e-16 0.0 3.499931568242538e-16 5.737908859743313" Properties=species:S:1:pos:R:3 unique_starting_index=2 config_type=initial n_minim_iter=4 pbc="T T T"
Si       2.96324538       1.84971707       3.73529870
Si       2.76819087       1.84971707       2.00261016
Si       3.73116077       3.83712068       2.77130781
Si       2.00027548       3.83712068       2.96660105
Si       5.63390899       3.83711830       0.86634427
Si       0.09752725       3.83711830       4.87156459
Si       4.86599360       1.84971469       5.64026224
Si       0.86544264       1.84971469       0.09764662
8
Lattice="5.709124638563073 0.0 0.0 0.0 5.769802411974219 -3.5503731792896697e-16 0.0 3.481245784941044e-16 5.71465300966033" Properties=species:S:1:pos:R:3 unique_starting_index=2 config_type=initial n_minim_iter=5 pbc="T T T"
Si       2.95363788       1.87718449       3.72669295
Si       2.75548676       1.87718449       1.98796006
Si       3.72318693       3.89261247       2.75814501
Si       1.98593771       3.89261247       2.95650800
Si       5.61004907       3.89261792       0.86936644
Si       0.09907556       3.89261792       4.84528657
Si       4.84050003       1.87718994       5.61547151
Si       0.86862461       1.87718994       0.09918150
8
Lattice="5.674489941050702 0.0 0.0 0.0 5.800439384252975 -3.56444153345148e-16 0.0 3.4637876870349625e-16 5.678732656602754" Properties=species:S:1:pos:R:3 unique_starting_index=2 config_type=initial n_minim_iter=6 pbc="T T T"
Si       2.93803310       1.88929330       3.71162924
Si       2.73645684       1.88929330       1.96710342
Si       3.70898890       3.91113077       2.73849263
Si       1.96550104       3.91113077       2.94024003
Si       5.57370181       3.91114609       0.87226291
Si       0.10078813       3.91114609       4.80646975
Si       4.80274601       1.88930862       5.57785896
Si       0.87174393       1.88930862       0.10087370
8
Lattice="5.674798272225228 0.0 0.0 0.0 5.818598752508538 -3.5668414946206845e-16 0.0 3.4719453186956657e-16 5.677840899388816" Properties=species:S:1:pos:R:3 unique_starting_index=2 config_type=initial n_minim_iter=7 pbc="T T T"
Si       2.94027775       1.89771514       3.71985686
Si       2.73452053       1.89771514       1.95798404
Si       3.71803149       3.92086061       2.73597856
Si       1.95676678       3.92086061       2.94186234
Si       5.57191966       3.92088361       0.88093641
Si       0.10287861       3.92088361       4.79690449
Si       4.79416592       1.89773814       5.57489901
Si       0.88063235       1.89773814       0.10294189
8
Lattice="5.662628248809145 0.0 0.0 0.0 5.812608721588156 -3.553180554780199e-16 0.0 3.474060582833629e-16 5.664961668751931" Properties=species:S:1:pos:R:3 unique_starting_index=2 config_type=initial n_minim_iter=8 pbc="T T T"
Si       2.93555026       1.89786610       3.71818023
Si       2.72707799       1.89786610       1.94678144
Si       3.71684314       3.91471544       2.72819635
Si       1.94578511       3.91471544       2.93676532
Si       5.55839211       3.91474262       0.88569940
Si       0.10423614       3.91474262       4.77926227
Si       4.77709923       1.89789329       5.56067719
Si       0.88552902       1.89789329       0.10428448
8
Lattice="5.6637591274755 0.0 0.0 0.0 5.812149263284376 -3.542799236445468e-16 0.0 3.4845331104004814e-16 5.665575038172936" Properties=species:S:1:pos:R:3 unique_starting_index=2 config_type=initial n_minim_iter=9 pbc="T T T"
Si       2.93749250       1.89950658       3.72490606
Si       2.72626663       1.89950658       1.94066898
Si       3.72393040       3.91261276       2.72713852
Si       1.93982872       3.91261276       2.93843652
Si       5.55814619       3.91264269       0.89211854
Si       0.10561293       3.91264269       4.77345650
Si       4.77170829       1.89953651       5.55992603
Si       0.89205084       1.89953651       0.10564900
8
Lattice="5.655371834899578 0.0 0.0 0.0 5.801221736736722 -3.5260692005160653e-16 0.0 3.488995788755153e-16 5.65647819124821" Properties=species:S:1:pos:R:3 unique_starting_index=2 config_type=initial n_minim_iter=10 pbc="T T T"
Si       2.93547460       1.89904447       3.73001790
Si       2.71989723       1.89904447       1.92646029
Si       3.72954596       3.90214392       2.72043346
Si       1.92582588       3.90214392       2.93604473
Si       5.54758315       3.90217727       0.90177881
Si       0.10778868       3.90217727       4.75469939
Si       4.75351180       1.89907782       5.54867256
Si       0.90186004       1.89907782       0.10780563
8
Lattice="5.6631264743488545 0.0 0.0 0.0 5.786521298849407 -3.5072032432859033e-16 0.0 3.502807256268781e-16 5.663143660990571" Properties=species:S:1:pos:R:3 unique_starting_index=2 config_type=initial n_minim_iter=11 pbc="T T T"
Si       2.94532082       1.90186184       3.76499257
Si       2.71780565       1.90186184       1.89815109
Si       3.76533691       3.88462224       2.71783760
Si       1.89778956       3.88462224       2.94530606
Si       5.54936889       3.88465946       0.93342074
Si       0.11375758       3.88465946       4.72972292
Si       4.72935280       1.90189905       5.54940943
Si       0.93377368       1.90189905       0.11373423
8
Lattice="5.587727333149029 0.0 0.0 0.0 5.716080153082462 -3.456197496322131e-16 0.0 3.4647750605594275e-16 5.588076803002019" Properties=species:S:1:pos:R:3 unique_starting_index=2 config_type=initial n_minim_iter=12 pbc="T T T"
Si       2.90843209       1.88229389       3.73014529
Si       2.67929525       1.88229389       1.85793151
Si       3.73029311       3.83375234       2.67949682
Si       1.85743422       3.83375234       2.90857999
Si       5.47315891       3.83378626       0.93610689
Si       0.11456842       3.83378626       4.65196991
Si       4.65129789       1.88232781       5.47353522
Si       0.93642944       1.88232781       0.11454159
8
Lattice="5.647132285757325 0.0 0.0 0.0 5.751263195588484 -3.47028838948602e-16 0.0 3.508382794636531e-16 5.647509521812274" Properties=species:S:1:pos:R:3 unique_starting_index=2 config_type=initial n_minim_iter=13 pbc="T T T"
Si       2.93957583       1.89413485       3.77377068
Si       2.70755646       1.89413485       1.87373884
Si       3.77391244       3.85709448       2.70777293
Si       1.87321985       3.85709448       2.93973659
Si       5.53112260       3.85712835       0.95001592
Si       0.11600969       3.85712835       4.69749360
Si       4.69678599       1.89416871       5.53152769
Si       0.95034630       1.89416871       0.11598183
8
Lattice="5.641801923998581 0.0 0.0 0.0 5.74379858152601 -3.4588927470366353e-16 0.0 3.511937706549286e-16 5.642201643065421" Properties=species:S:1:pos:R:3 unique_starting_index=2 config_type=initial n_minim_iter=14 pbc="T T T"
Si       2.93708785       1.89225462       3.77340569
Si       2.70471407       1.89225462       1.86879595
Si       3.77353781       3.85151048       2.70494261
Si       1.86826412       3.85151048       2.93725904
Si       5.52561504       3.85154396       0.95230487
Si       0.11618689       3.85154396       4.68989677
Si       4.68916508       1.89228810       5.52604343
Si       0.95263684       1.89228810       0.11615822
8
Lattice="5.640428757530367 0.0 0.0 0.0 5.735410076833229 -3.4470813911743516e-16 0.0 3.5177158473858777e-16 5.640866336163959" Properties=species:S:1:pos:R:3 unique_starting_index=2 config_type=initial n_minim_iter=15 pbc="T T T"
Si       2.93681330       1.89047342       3.77836690
Si       2.70361546       1.89047342       1.86249943
Si       3.77848399       3.84490384       2.70386424
Si       1.86194477       3.84490384       2.93700209
Si       5.52382984       3.84493666       0.95793373
Si       0.11659892       3.84493666       4.68293260
Si       4.68215915       1.89050623       5.52429741
Si       0.95826961       1.89050623       0.11656892
8
Lattice="5.633627172715404 0.0 0.0 0.0 5.575181935505384 -3.3409962417089596e-16 0.0 3.519994316404499e-16 5.634675165123761" Properties=species:S:1:pos:R:3 unique_starting_index=2 config_type=initial n_minim_iter=16 pbc="T T T"
Si       2.93945067       1.85483495       3.88431892
Si       2.69417650       1.85483495       1.75035625
Si       3.88420095       3.72032598       2.69474919
Si       1.74942622       3.72032598       2.93992598
Si       5.51099009       3.72034699       1.06698133
Si       0.12263708       3.72034699       4.56769383
Si       4.56623981       1.85485596       5.51208677
Si       1.06738737       1.85485596       0.12258839
8
Lattice="5.137014323638844 0.0 0.0 0.0 5.469707625785374 -3.2910008460766693e-16 0.0 3.2044745355464133e-16 5.135363354257465" Properties=species:S:1:pos:R:3 unique_starting_index=2 config_type=initial n_minim_iter=17 pbc="T T T"
Si       2.65979941       1.82125314       3.51249159
Si       2.47721491       1.82125314       1.62287177
Si       3.51423079       3.64840922       2.47639348
Si       1.62278354       3.64840922       2.65896988
Si       5.04572207       3.64845448       0.94480991
Si       0.09129225       3.64845448       4.19055344
Si       4.19129070       1.82129841       5.04407515
Si       0.94572363       1.82129841       0.09128820
8
Lattice="5.58622420801944 0.0 0.0 0.0 5.684737141480301 -3.4322100022733246e-16 0.0 3.4680827681055576e-16 5.584927677705469" Properties=species:S:1:pos:R:3 unique_starting_index=2 config_type=initial n_minim_iter=18 pbc="T T T"
Si       2.88907071       1.89173474       3.82570255
Si       2.69715349       1.89173474       1.75922513
Si       3.82726069       3.79294791       2.69648579
Si       1.75896352       3.79294791       2.88844189
Si       5.49026560       3.79300240       1.03323871
Si       0.09595861       3.79300240       4.55168897
Si       4.55207562       1.89178923       5.48894963
Si       1.03414858       1.89178923       0.09597805
8
Lattice="5.6314453904897945 0.0 0.0 0.0 5.667678778027477 -3.415523945052437e-16 0.0 3.5017472900170467e-16 5.6307149495966495" Properties=species:S:1:pos:R:3 unique_starting_index=2 config_type=initial n_minim_iter=19 pbc="T T T"
Si       2.91096284       1.88613139       3.85924673
Si       2.72048255       1.88613139       1.77146822
Si       3.86041256       3.78149495       2.72008309
Si       1.77103283       3.78149495       2.91063186
Si       5.53620524       3.78154739       1.04388925
Si       0.09524015       3.78154739       4.58682570
Si       4.58675552       1.88618383       5.53544057
Si       1.04468987       1.88618383       0.09527438
8
Lattice="5.625184256424273 0.0 0.0 0.0 5.6388984445482695 -3.3953876240000746e-16 0.0 3.5003821775316685e-16 5.624750814765681" Properties=species:S:1:pos:R:3 unique_starting_index=2 config_type=initial n_minim_iter=20 pbc="T T T"
Si       2.90674296       1.87667548       3.85670014
Si       2.71844130       1.87667548       1.76805067
Si       3.85765605       3.76217220       2.71818258
Si       1.76752820       3.76217220       2.90656823
Si       5.53103342       3.76222296       1.04432474
Si       0.09415083       3.76222296       4.58042608
Si       4.58012033       1.87672625       5.53055799
Si       1.04506392       1.87672625       0.09419282
8
Lattice="5.631251969131149 0.0 0.0 0.0 5.619147029122929 -3.3820782155068383e-16 0.0 3.505206450302846e-16 5.631079852480921" Properties=species:S:1:pos:R:3 unique_starting_index=2 config_type=initial n_minim_iter=21 pbc="T T T"
Si       2.90877146       1.87017089       3.86279462
Si       2.72248051       1.87017089       1.76828523
Si       3.86356689       3.74892676       2.72234499
Si       1.76768508       3.74892676       2.90873486
Si       5.53810650       3.74897614       1.04725470
Si       0.09314547       3.74897614       4.58382516
Si       4.58331106       1.87022027       5.53788492
Si       1.04794091       1.87022027       0.09319494
8
Lattice="5.648850515197651 0.0 0.0 0.0 5.542738542031119 -3.334919919967258e-16 0.0 3.515963500503302e-16 5.649600609818136" Properties=species:S:1:pos:R:3 unique_starting_index=2 config_type=initial n_minim_iter=22 pbc="T T T"
Si       2.91284348       1.84496271       3.88357981
Si       2.73600703       1.84496271       1.76602080
Si       3.88370060       3.69773180       2.73630461
Si       1.76514991       3.69773180       2.91329600
Si       5.56043229       3.69777583       1.05877950
Si       0.08841823       3.69777583       4.59082111
Si       4.58957517       1.84500674       5.56110492
Si       1.05927535       1.84500674       0.08849569
8
Lattice="5.597136773124624 0.0 0.0 0.0 5.54194821526111 -3.342809917258986e-16 0.0 3.4787267213011316e-16 5.601776193718688" Properties=species:S:1:pos:R:3 unique_starting_index=2 config_type=initial n_minim_iter=23 pbc="T T T"
Si       2.88510666       1.84465253       3.84989800
Si       2.71203012       1.84465253       1.75187819
Si       3.84715359       3.69725053       2.71422527
Si       1.74998318       3.69725053       2.88755092
Si       5.51059850       3.69729568       1.04900990
Si       0.08653827       3.69729568       4.55276629
Si       4.54855157       1.84469768       5.51511337
Si       1.04858520       1.84469768       0.08666283
8
Lattice="5.6195239756837205 0.0 0.0 0.0 5.55130672966767 -3.351737670185192e-16 0.0 3.488943672484494e-16 5.623860787783343" Properties=species:S:1:pos:R:3 unique_starting_index=2 config_type=initial n_minim_iter=24 pbc="T T T"
Si       2.89615240       1.84768576       3.86589009
Si       2.72337158       1.84768576       1.75797069
Si       3.86335940       3.70357511       2.72541961
Si       1.75616458       3.70357511       2.89844117
Si       5.53313357       3.70362097       1.05395970
Si       0.08639041       3.70362097       4.56990109
Si       4.56592656       1.84773162       5.53735001
Si       1.05359741       1.84773162       0.08651078
8
Lattice="5.643633719557617 0.0 0.0 0.0 5.557974101663818 -3.3601351508007823e-16 0.0 3.498893299615898e-16 5.6473665601622915" Properties=species:S:1:pos:R:3 unique_starting_index=2 config_type=initial n_minim_iter=25 pbc="T T T"
Si       2.90759104       1.84981104       3.88363684
Si       2.73604268       1.84981104       1.76372972
Si       3.88153024       3.70811578       2.73779699
Si       1.76210348       3.70811578       2.90956957
Si       5.55785954       3.70816306       1.05995356
Si       0.08577418       3.70816306       4.58741300
Si       4.58392034       1.84985832       5.56148027
Si       1.05971338       1.84985832       0.08588629
8
Lattice="5.625354604606523 0.0 0.0 0.0 5.556414826014399 -3.3656114008224514e-16 0.0 3.4808848668433634e-16 5.6282739285670536" Properties=species:S:1:pos:R:3 unique_starting_index=2 config_type=initial n_minim_iter=26 pbc="T T T"
Si       2.89779751       1.84928143       3.87009928
Si       2.72755710       1.84928143       1.75817465
Si       3.86857824       3.70708599       2.72891438
Si       1.75677637       3.70708599       2.89935955
Si       5.54023440       3.70713339       1.05596231
Si       0.08512021       3.70713339       4.57231161
Si       4.56945367       1.84932884       5.54305134
Si       1.05590093       1.84932884       0.08522259
