1
Lattice="2.688892390255606 1.2318509988108177e-17 -3.252148060366714e-51 1.344446195127803 2.3286491180040154 3.0320063888846108e-49 1.9058298978993843e-49 -7.699716399514188e-49 2.5050094630230437" Properties=species:S:1:pos:R:3 cutoff=-1.0 nneightol=1.2 n_minim_iter=1 energy=-162.8295546834591 free_energy=-162.8295546834591 pbc="T T T"
Si       0.00000000       0.00000000       0.00000000
