1
Lattice="2.493887895457175 1.682554456826842e-18 7.490995837576509e-51 1.2469439477285875 2.159770271656424 -3.5946557400083395e-49 1.8651255510055462e-49 -1.5104231452320344e-48 2.343864188126091" Properties=species:S:1:pos:R:3 cutoff=-1.0 nneightol=1.2 n_minim_iter=1 energy=-162.6471837547303 free_energy=-162.6471837547303 pbc="T T T"
Si       0.00000000       0.00000000       0.00000000
