2
Lattice="4.989021964857917 -1.0761981341517063e-16 2.813576298105363e-15 -1.076198134151592e-16 4.989021964857917 -4.735026614708507e-15 2.4945109824289577 2.4945109824289595 1.4485992182916525" Properties=species:S:1:pos:R:3 cutoff=-1.0 nneightol=1.2 n_minim_iter=1 energy=-325.5514131889163 free_energy=-325.5514131889163 pbc="T T T"
Si      -0.00000000      -1.24725549      -0.36214980
Si      -0.00000000       1.24725549       0.36214980
2
Lattice="4.9130373889853125 -5.415948462055827e-17 2.664795028251042e-15 -5.415948462054683e-17 4.9130373889853125 -4.609783210983023e-15 2.4565186944926554 2.456518694492657 1.4937535144387897" Properties=species:S:1:pos:R:3 cutoff=-1.0 nneightol=1.2 n_minim_iter=2 stress="0.039167687213221634 -3.4230010567166965e-12 6.039306388604827e-14 -3.4230010567166965e-12 0.03916768720940644 1.8991960988841193e-11 6.039306388604827e-14 1.8991960988841193e-11 0.04036701200544353" pbc="T T T"
Si      -0.00000000      -1.22825935      -0.37343838
Si      -0.00000000       1.22825935       0.37343838
