2
Lattice="4.953384877153445 -1.0685107422010788e-16 2.79347863848288e-15 -1.0685107422010184e-16 4.953384877153445 -4.701203841439522e-15 2.4766924385767215 2.476692438576724 1.438251727790604" Properties=species:S:1:pos:R:3 cutoff=-1.0 nneightol=1.2 n_minim_iter=1 energy=-325.5858687290661 free_energy=-325.5858687290661 pbc="T T T"
Si      -0.00000000      -1.23834622      -0.35956293
Si      -0.00000000       1.23834622       0.35956293
