4
Lattice="1.936721927499611 -3.3545007785620538 2.401139308822603e-16 1.936721927499611 3.3545007785620538 -2.401139308822603e-16 0.0 4.005055216407006e-16 5.5952442210481905" Properties=species:S:1:pos:R:3 cutoff=-1.0 nneightol=1.2 n_minim_iter=1 energy=-652.8660463536633 free_energy=-652.8660463536633 pbc="T T T"
Si       1.93672193       1.11816693       0.24684210
Si       1.93672193      -1.11816693       3.04446421
Si       1.93672193       1.11816693       2.55078001
Si       1.93672193      -1.11816693      -0.24684210
4
Lattice="1.9283739675044933 -3.3400416877109578 2.566965453812459e-16 1.9283739675044933 3.3400416877109578 -2.5669654538124587e-16 1.9915296763724932e-32 3.7305943099584903e-16 5.643792871280046" Properties=species:S:1:pos:R:3 cutoff=-1.0 nneightol=1.2 n_minim_iter=2 stress="-0.03060255846576043 1.7714889083894764e-17 -1.0212446988161441e-17 1.7714889083894764e-17 -0.03060255846576067 -3.223079227259797e-17 -1.0212446988161441e-17 -3.223079227259797e-17 -0.032463468412684875" pbc="T T T"
Si       1.92837397       1.11334723       0.24786023
Si       1.92837397      -1.11334723       3.06975667
Si       1.92837397       1.11334723       2.57403620
Si       1.92837397      -1.11334723      -0.24786023
4
Lattice="1.9260174562547059 -3.3359600904977182 2.6083609558744423e-16 1.9260174562547059 3.3359600904977182 -2.608360955874442e-16 -7.423423779055838e-34 3.6674722665028853e-16 5.657611850455997" Properties=species:S:1:pos:R:3 cutoff=-1.0 nneightol=1.2 n_minim_iter=3 stress="-0.027969688063439507 1.1912091989903018e-16 -3.9179527931217503e-17 1.1912091989903018e-16 -0.027969688063439566 2.110373324351095e-17 -3.9179527931217503e-17 2.110373324351095e-17 -0.03573832092664402" pbc="T T T"
Si       1.92601746       1.11198670       0.25242795
Si       1.92601746      -1.11198670       3.08123388
Si       1.92601746       1.11198670       2.57637797
Si       1.92601746      -1.11198670      -0.25242795
4
Lattice="1.922681557498406 -3.330182144362901 2.6643099714128453e-16 1.922681557498406 3.330182144362901 -2.664309971412845e-16 -1.9604765042049859e-32 3.5833149229234496e-16 5.677261066944866" Properties=species:S:1:pos:R:3 cutoff=-1.0 nneightol=1.2 n_minim_iter=4 stress="-0.025266279581196517 1.781744411122323e-18 -3.0064680385708917e-18 1.781744411122323e-18 -0.02526627958119658 -1.8741355260704518e-17 -3.0064680385708917e-18 -1.8741355260704518e-17 -0.01646703838204677" pbc="T T T"
Si       1.92268156       1.11006071       0.25611995
Si       1.92268156      -1.11006071       3.09475049
Si       1.92268156       1.11006071       2.58251058
Si       1.92268156      -1.11006071      -0.25611995
4
Lattice="1.923296540212219 -3.3312473256690027 2.543624470035784e-16 1.923296540212219 3.3312473256690027 -2.543624470035784e-16 -4.1133577803302313e-32 3.7828634202720805e-16 5.6736309879146365" Properties=species:S:1:pos:R:3 cutoff=-1.0 nneightol=1.2 n_minim_iter=5 stress="-0.02554723536529832 6.352926615569979e-17 1.3982462465099544e-17 6.352926615569979e-17 -0.02554723536529832 -4.934857903977354e-17 1.3982462465099544e-17 -4.934857903977354e-17 -0.026213674680113524" pbc="T T T"
Si       1.92329654       1.11041578       0.25611977
Si       1.92329654      -1.11041578       3.09293526
Si       1.92329654       1.11041578       2.58069573
Si       1.92329654      -1.11041578      -0.25611977
4
Lattice="1.9233871976302817 -3.3314043489231695 2.7393321988876446e-16 1.9233871976302817 3.3314043489231695 -2.7393321988876456e-16 -5.364654710949178e-32 3.4562049742162326e-16 5.673096155806856" Properties=species:S:1:pos:R:3 cutoff=-1.0 nneightol=1.2 n_minim_iter=6 stress="-0.025648050027821747 -9.001486568806604e-18 4.920108805978714e-17 -9.001486568806604e-18 -0.025648050027821945 -1.8129637442770522e-17 4.920108805978714e-17 -1.8129637442770522e-17 -0.025644739690136538" pbc="T T T"
Si       1.92338720       1.11046812       0.25590339
Si       1.92338720      -1.11046812       3.09245147
Si       1.92338720       1.11046812       2.58064468
Si       1.92338720      -1.11046812      -0.25590339
