4
Lattice="2.006894121578307 -3.4760425839849383 2.4736596070264926e-16 2.0068941215783065 3.4760425839849383 -2.4736596070264926e-16 -4.947375979471844e-32 4.0884939805018624e-16 5.745244471075017" Properties=species:S:1:pos:R:3 cutoff=-1.0 nneightol=1.2 n_minim_iter=1 energy=-652.6820336172278 free_energy=-652.6820336172278 pbc="T T T"
Si       2.00689412       1.15868086       0.26383886
Si       2.00689412      -1.15868086       3.13646109
Si       2.00689412       1.15868086       2.60878338
Si       2.00689412      -1.15868086      -0.26383886
4
Lattice="2.0104606234692897 -3.48221994646541 2.574333946316126e-16 2.010460623469289 3.48221994646541 -2.5743339463161256e-16 -4.0340035640869926e-32 3.9169187012103347e-16 5.724878739654439" Properties=species:S:1:pos:R:3 cutoff=-1.0 nneightol=1.2 n_minim_iter=2 stress="0.05210878973094651 -1.5568788214531984e-16 1.667939613733951e-18 -1.5568788214531984e-16 0.052108789730945994 4.3900288278732264e-17 1.667939613733951e-18 4.3900288278732264e-17 0.05262826965718548" pbc="T T T"
Si       2.01046062       1.16073998       0.26516802
Si       2.01046062      -1.16073998       3.12760739
Si       2.01046062       1.16073998       2.59727135
Si       2.01046062      -1.16073998      -0.26516802
4
Lattice="2.006802301183498 -3.4758835463959583 2.570995662854294e-16 2.0068023011834977 3.4758835463959583 -2.5709956628542933e-16 -4.164220160183212e-32 3.930731356018556e-16 5.745770225588812" Properties=species:S:1:pos:R:3 cutoff=-1.0 nneightol=1.2 n_minim_iter=3 stress="0.04542361499852298 -1.261851390296685e-16 2.4313936288675105e-17 -1.261851390296685e-16 0.04542361499852241 -2.965355719794762e-17 2.4313936288675105e-17 -2.965355719794762e-17 0.020653782745392583" pbc="T T T"
Si       2.00680230       1.15862785       0.27689129
Si       2.00680230      -1.15862785       3.14977640
Si       2.00680230       1.15862785       2.59599382
Si       2.00680230      -1.15862785      -0.27689129
4
Lattice="1.9999734961622075 -3.464055709144103 2.5826864332346015e-16 1.999973496162207 3.464055709144103 -2.5826864332346015e-16 -3.8143417973689224e-32 3.9271069457021024e-16 5.785074476920515" Properties=species:S:1:pos:R:3 cutoff=-1.0 nneightol=1.2 n_minim_iter=4 stress="0.04012414776164571 -4.362516019635625e-17 -2.0872978683068213e-17 -4.362516019635625e-17 0.04012414776164662 1.7701252453888965e-17 -2.0872978683068213e-17 1.7701252453888965e-17 0.036062906438558875" pbc="T T T"
Si       1.99997350       1.15468524       0.28351486
Si       1.99997350      -1.15468524       3.17605210
Si       1.99997350       1.15468524       2.60902238
Si       1.99997350      -1.15468524      -0.28351486
4
Lattice="1.9606970399567638 -3.3960268914550213 3.728566816328698e-16 1.9606970399567634 3.3960268914550213 -3.7285668163286986e-16 -5.410888506200515e-32 2.073694131932267e-16 6.019167775612717" Properties=species:S:1:pos:R:3 cutoff=-1.0 nneightol=1.2 n_minim_iter=5 stress="0.02346945802720072 -1.3252747296638499e-16 -1.2692588903700909e-17 -1.3252747296638499e-16 0.023469458027201615 -7.280551813452557e-17 -1.2692588903700909e-17 -7.280551813452557e-17 0.01539924477863812" pbc="T T T"
Si       1.96069704       1.13200896       0.34104023
Si       1.96069704      -1.13200896       3.35062412
Si       1.96069704       1.13200896       2.66854366
Si       1.96069704      -1.13200896      -0.34104023
4
Lattice="1.957352447536014 -3.3902338874516733 4.546485522195847e-16 1.957352447536014 3.3902338874516733 -4.546485522195847e-16 -2.7996168758632047e-32 7.336037191053538e-17 6.039755649568424" Properties=species:S:1:pos:R:3 cutoff=-1.0 nneightol=1.2 n_minim_iter=6 stress="0.022725000295637014 -1.611840043673278e-17 -1.4515863609816522e-17 -1.611840043673278e-17 0.02272500029563736 -4.183941719084775e-17 -1.4515863609816522e-17 -4.183941719084775e-17 0.01599338494029573" pbc="T T T"
Si       1.95735245       1.13007796       0.34568482
Si       1.95735245      -1.13007796       3.36556264
Si       1.95735245       1.13007796       2.67419301
Si       1.95735245      -1.13007796      -0.34568482
4
Lattice="1.9552842318585162 -3.386651632817235 4.54336862176683e-16 1.9552842318585162 3.386651632817235 -4.54336862176683e-16 2.1989459261082388e-32 7.54269264315371e-17 6.052539595364428" Properties=species:S:1:pos:R:3 cutoff=-1.0 nneightol=1.2 n_minim_iter=7 stress="0.020812862253913135 -1.0555516176948225e-17 5.5563890895570605e-18 -1.0555516176948225e-17 0.020812862253912347 -1.111764667345964e-16 5.5563890895570605e-18 -1.111764667345964e-16 0.021847399789095466" pbc="T T T"
Si       1.95528423       1.12888388       0.34295050
Si       1.95528423      -1.12888388       3.36922030
Si       1.95528423       1.12888388       2.68331930
Si       1.95528423      -1.12888388      -0.34295050
4
Lattice="1.9546847283751478 -3.3856132623247257 4.4374413505269643e-16 1.9546847283751478 3.3856132623247257 -4.437441350526964e-16 1.6433764679830395e-32 9.336128851185141e-17 6.05625280287339" Properties=species:S:1:pos:R:3 cutoff=-1.0 nneightol=1.2 n_minim_iter=8 stress="0.02084551596342982 3.580637349564851e-18 5.1289745442065175e-18 3.580637349564851e-18 0.020845515963429012 -4.129871816221896e-17 5.1289745442065175e-18 -4.129871816221896e-17 0.02107471229478785" pbc="T T T"
Si       1.95468473       1.12853775       0.34470827
Si       1.95468473      -1.12853775       3.37283467
Si       1.95468473       1.12853775       2.68341814
Si       1.95468473      -1.12853775      -0.34470827
