4
Lattice="2.0226350480618667 -3.503306668412671 -5.280596033505669e-16 2.0226350480618667 3.503306668412671 5.28059603350568e-16 -1.763516530360029e-30 -9.9135389345959e-16 6.576940715929342" Properties=species:S:1:pos:R:3 cutoff=-1.0 nneightol=1.2 n_minim_iter=1 energy=-652.6011997258518 free_energy=-652.6011997258518 pbc="T T T"
Si       2.02263505       1.16776889       0.42647023
Si       2.02263505      -1.16776889       3.71494059
Si       2.02263505       1.16776889       2.86200013
Si       2.02263505      -1.16776889      -0.42647023
4
Lattice="2.0323463434497904 -3.5201271254318622 -6.912613744853695e-16 2.0323463434497904 3.5201271254318622 6.912613744853711e-16 -1.6101728908034286e-30 -6.867442742662263e-16 6.514236821339697" Properties=species:S:1:pos:R:3 cutoff=-1.0 nneightol=1.2 n_minim_iter=2 stress="-0.030076711778540426 -1.1129658348500049e-17 1.533585029960541e-17 -1.1129658348500049e-17 -0.030076711778540727 3.900371187667851e-17 1.533585029960541e-17 3.900371187667851e-17 -0.02559756585268085" pbc="T T T"
Si       2.03234634       1.17337571       0.42275786
Si       2.03234634      -1.17337571       3.67987627
Si       2.03234634       1.17337571       2.83436055
Si       2.03234634      -1.17337571      -0.42275786
4
Lattice="2.0351988251183117 -3.5250677686094005 -6.900852440299662e-16 2.0351988251183117 3.5250677686094005 6.900852440299678e-16 -1.594874348547533e-30 -6.86341750881016e-16 6.495989248625032" Properties=species:S:1:pos:R:3 cutoff=-1.0 nneightol=1.2 n_minim_iter=3 stress="-0.0317577070373967 -1.2928611664781331e-17 -8.189046276488402e-19 -1.2928611664781331e-17 -0.03175770703739673 5.835299722049261e-17 -8.189046276488402e-19 5.835299722049261e-17 -0.03286890037928986" pbc="T T T"
Si       2.03519883       1.17502259       0.42059957
Si       2.03519883      -1.17502259       3.66859419
Si       2.03519883       1.17502259       2.82739506
Si       2.03519883      -1.17502259      -0.42059957
4
Lattice="2.035233313162431 -3.5251275036540686 -6.877903713607219e-16 2.035233313162431 3.5251275036540686 6.877903713607234e-16 -1.5855357194735277e-30 -6.906187867160492e-16 6.495769094931427" Properties=species:S:1:pos:R:3 cutoff=-1.0 nneightol=1.2 n_minim_iter=4 stress="-0.031842401034356316 5.675037910594653e-17 3.2681739230712505e-17 5.675037910594653e-17 -0.031842401034356774 1.272481345892328e-16 3.2681739230712505e-17 1.272481345892328e-16 -0.03221127410345349" pbc="T T T"
Si       2.03523331       1.17504250       0.41960665
Si       2.03523331      -1.17504250       3.66749120
Si       2.03523331       1.17504250       2.82827790
Si       2.03523331      -1.17504250      -0.41960665
4
Lattice="2.0353321156017783 -3.525298634498931 -7.69989864331919e-16 2.0353321156017783 3.525298634498931 7.6998986433191995e-16 -1.533973586151314e-30 -5.362124977845303e-16 6.4951384536228165" Properties=species:S:1:pos:R:3 cutoff=-1.0 nneightol=1.2 n_minim_iter=5 stress="-0.03193563827753121 -1.8143746341283497e-17 4.541198389688979e-18 -1.8143746341283497e-17 -0.03193563827753128 1.112435619478421e-16 4.541198389688979e-18 1.112435619478421e-16 -0.03196827614359678" pbc="T T T"
Si       2.03533212       1.17509954       0.41885920
Si       2.03533212      -1.17509954       3.66642843
Si       2.03533212       1.17509954       2.82871002
Si       2.03533212      -1.17509954      -0.41885920
