4
Lattice="1.9696584789011 -3.411548559015536 2.628947060488652e-16 1.9696584789011002 3.411548559015536 -2.628947060488654e-16 3.594200680228223e-31 5.023833772930082e-16 6.519360213205472" Properties=species:S:1:pos:R:3 cutoff=-1.0 nneightol=1.2 n_minim_iter=1 energy=-652.6023095017464 free_energy=-652.6023095017464 pbc="T T T"
Si       1.96965848       1.13718285       0.41656587
Si       1.96965848      -1.13718285       3.67624598
Si       1.96965848       1.13718285       2.84311423
Si       1.96965848      -1.13718285      -0.41656587
4
Lattice="1.971537173402147 -3.414802553343249 2.502651585004312e-16 1.9715371734021472 3.414802553343249 -2.5026515850043163e-16 3.5026997147381406e-31 5.260402262478169e-16 6.506941425681996" Properties=species:S:1:pos:R:3 cutoff=-1.0 nneightol=1.2 n_minim_iter=2 stress="0.010595723999328151 -5.0453630887658676e-17 4.3400361310595805e-17 -5.0453630887658676e-17 0.010595723999328035 -2.5624389996531603e-17 4.3400361310595805e-17 -2.5624389996531603e-17 0.0070659574571621895" pbc="T T T"
Si       1.97153717       1.13826752       0.41759852
Si       1.97153717      -1.13826752       3.67106924
Si       1.97153717       1.13826752       2.83587219
Si       1.97153717      -1.13826752      -0.41759852
4
Lattice="1.9681461514187604 -3.408929130978439 2.4957499139825385e-16 1.9681461514187606 3.408929130978439 -2.495749913982545e-16 3.4792293967914767e-31 5.280513870885583e-16 6.529383041647325" Properties=species:S:1:pos:R:3 cutoff=-1.0 nneightol=1.2 n_minim_iter=3 stress="0.009403031303113209 -4.6690304619267945e-17 -2.381872019007607e-17 -4.6690304619267945e-17 0.009403031303112427 -9.877307601771582e-17 -2.381872019007607e-17 -9.877307601771582e-17 0.010568685540526312" pbc="T T T"
Si       1.96814615       1.13630971       0.42085811
Si       1.96814615      -1.13630971       3.68554963
Si       1.96814615       1.13630971       2.84383341
Si       1.96814615      -1.13630971      -0.42085811
4
Lattice="1.967794426836635 -3.4083199261319286 2.496685731391106e-16 1.9677944268366352 3.4083199261319286 -2.496685731391111e-16 3.3603634212329016e-31 5.279486966662269e-16 6.531717380776763" Properties=species:S:1:pos:R:3 cutoff=-1.0 nneightol=1.2 n_minim_iter=4 stress="0.009411306001335655 -3.109113278257134e-17 4.5360505366138234e-17 -3.109113278257134e-17 0.009411306001335022 -1.7191350962219242e-17 4.5360505366138234e-17 -1.7191350962219242e-17 0.009799675669299217" pbc="T T T"
Si       1.96779443       1.13610664       0.42230741
Si       1.96779443      -1.13610664       3.68816610
Si       1.96779443       1.13610664       2.84355128
Si       1.96779443      -1.13610664      -0.42230741
4
Lattice="1.96767574055745 -3.40811435546622 2.583622222216876e-16 1.9676757405574503 3.40811435546622 -2.58362222221688e-16 3.341902762417202e-31 5.11363415339464e-16 6.532505364890865" Properties=species:S:1:pos:R:3 cutoff=-1.0 nneightol=1.2 n_minim_iter=5 stress="0.00942619623088287 2.5915379425732767e-17 -4.4192338706774565e-17 2.5915379425732767e-17 0.009426196230881976 -1.2680642977983255e-17 -4.4192338706774565e-17 -1.2680642977983255e-17 0.009420177745162336" pbc="T T T"
Si       1.96767574       1.13603812       0.42290777
Si       1.96767574      -1.13603812       3.68916045
Si       1.96767574       1.13603812       2.84334491
Si       1.96767574      -1.13603812      -0.42290777
