4
Lattice="1.9697213556557014 -3.4116574647491213 4.471576856216753e-16 1.9697213556557016 3.4116574647491213 -4.471576856216753e-16 0.0 7.998846226793012e-16 6.1028411937231635" Properties=species:S:1:pos:R:3 cutoff=-1.0 nneightol=1.2 n_minim_iter=1 energy=-652.6719240736658 free_energy=-652.6719240736658 pbc="T T T"
Si       1.96972136       1.13721915       0.34735997
Si       1.96972136      -1.13721915       3.39878057
Si       1.96972136       1.13721915       2.70406063
Si       1.96972136      -1.13721915      -0.34735997
4
Lattice="1.966201540779324 -3.405560966549999 4.449023935180403e-16 1.9662015407793243 3.405560966549999 -4.449023935180402e-16 -3.602295745267828e-34 8.053559777764232e-16 6.124710872768311" Properties=species:S:1:pos:R:3 cutoff=-1.0 nneightol=1.2 n_minim_iter=2 stress="0.025059886934858205 1.0360459697900021e-16 -1.8204342929977603e-17 1.0360459697900021e-16 0.025059886934857185 -1.128049492093281e-16 -1.8204342929977603e-17 -1.128049492093281e-16 0.02538828601222532" pbc="T T T"
Si       1.96620154       1.13518699       0.34845530
Si       1.96620154      -1.13518699       3.41081073
Si       1.96620154       1.13518699       2.71390014
Si       1.96620154      -1.13518699      -0.34845530
4
Lattice="1.9630683567163507 -3.400134132563464 4.494379546429753e-16 1.963068356716351 3.400134132563464 -4.494379546429753e-16 2.533369295835056e-33 7.985407642999045e-16 6.144277344357799" Properties=species:S:1:pos:R:3 cutoff=-1.0 nneightol=1.2 n_minim_iter=3 stress="0.025281543267520724 9.065519721284066e-17 1.5333312372040383e-19 9.065519721284066e-17 0.025281543267519774 -4.1882826649491684e-17 1.5333312372040383e-19 -4.1882826649491684e-17 0.02339384707115206" pbc="T T T"
Si       1.96306836       1.13337804       0.35480837
Si       1.96306836      -1.13337804       3.42694705
Si       1.96306836       1.13337804       2.71733030
Si       1.96306836      -1.13337804      -0.35480837
4
Lattice="1.961146731102444 -3.3968057793670523 4.476569153406497e-16 1.9611467311024442 3.3968057793670523 -4.476569153406498e-16 3.294107675601048e-33 8.025550244468919e-16 6.156324158672383" Properties=species:S:1:pos:R:3 cutoff=-1.0 nneightol=1.2 n_minim_iter=4 stress="0.02418407754237151 6.236446758785331e-17 5.231831928322051e-18 6.236446758785331e-17 0.024184077542370657 -1.3159858075319746e-16 5.231831928322051e-18 -1.3159858075319746e-16 0.02426375803637428" pbc="T T T"
Si       1.96114673       1.13226859       0.35633263
Si       1.96114673      -1.13226859       3.43449471
Si       1.96114673       1.13226859       2.72182944
Si       1.96114673      -1.13226859      -0.35633263
