4
Lattice="1.7870203761353782 -3.0952100856273206 -2.1793509224398177e-16 1.7870203761353787 3.0952100856273206 2.1793509224398177e-16 -4.4053453486454614e-32 -4.034093153079091e-16 5.7293966222712935" Properties=species:S:1:pos:R:3 cutoff=-1.0 nneightol=1.2 n_minim_iter=1 energy=-651.2600012828442 free_energy=-651.2600012828442 pbc="T T T"
Si       1.78702038       1.03173670       0.28273533
Si       1.78702038      -1.03173670       3.14743364
Si       1.78702038       1.03173670       2.58196298
Si       1.78702038      -1.03173670      -0.28273533
4
Lattice="1.7820995879731152 -3.0866870305169996 -1.8989240024560238e-16 1.7820995879731156 3.0866870305169996 1.898924002456024e-16 -3.4545697708262784e-32 -4.588777667996211e-16 5.761080677593984" Properties=species:S:1:pos:R:3 cutoff=-1.0 nneightol=1.2 n_minim_iter=2 stress="-0.5841989792613284 2.8119718119084364e-16 -5.835242868139417e-17 2.8119718119084364e-16 -0.5841989792613245 1.2436956501019735e-16 -5.835242868139417e-17 1.2436956501019735e-16 -0.5716535931608673" pbc="T T T"
Si       1.78209959       1.02889568       0.28152507
Si       1.78209959      -1.02889568       3.16206541
Si       1.78209959       1.02889568       2.59901527
Si       1.78209959      -1.02889568      -0.28152507
4
Lattice="1.7826089277388588 -3.0875692328695825 -1.9433453867122794e-16 1.7826089277388593 3.0875692328695825 1.9433453867122806e-16 -6.173893622666864e-32 -4.505722384849771e-16 5.757788953620507" Properties=species:S:1:pos:R:3 cutoff=-1.0 nneightol=1.2 n_minim_iter=3 stress="-0.5814680482931255 2.7773881845350867e-16 1.3246986623731136e-16 2.7773881845350867e-16 -0.581468048293124 5.7260390040788e-16 1.3246986623731136e-16 5.7260390040788e-16 -0.4991096763873677" pbc="T T T"
Si       1.78260893       1.02918974       0.27915188
Si       1.78260893      -1.02918974       3.15804635
Si       1.78260893       1.02918974       2.59974260
Si       1.78260893      -1.02918974      -0.27915188
4
Lattice="1.7872555480327579 -3.0956174153020948 -1.874297900437425e-16 1.7872555480327583 3.0956174153020948 1.8742979004374262e-16 -7.027889277367455e-32 -4.62565035590874e-16 5.727888942600993" Properties=species:S:1:pos:R:3 cutoff=-1.0 nneightol=1.2 n_minim_iter=4 stress="-0.537849258095465 2.4290405899896043e-16 3.355538347250904e-17 2.4290405899896043e-16 -0.5378492580954721 7.613747434035271e-16 3.355538347250904e-17 7.613747434035271e-16 -0.5313278353103922" pbc="T T T"
Si       1.78725555       1.03187247       0.27239246
Si       1.78725555      -1.03187247       3.13633693
Si       1.78725555       1.03187247       2.59155202
Si       1.78725555      -1.03187247      -0.27239246
4
Lattice="1.7873029154846518 -3.095699458135399 -1.8742386420352927e-16 1.7873029154846523 3.095699458135399 1.874238642035294e-16 -7.887915101381059e-32 -4.6256990560772e-16 5.727585343355042" Properties=species:S:1:pos:R:3 cutoff=-1.0 nneightol=1.2 n_minim_iter=5 stress="-0.5372441858303529 8.372360072585516e-17 -8.347791157516522e-17 8.372360072585516e-17 -0.5372441858303586 8.011351763890016e-16 -8.347791157516522e-17 8.011351763890016e-16 -0.5373321469949772" pbc="T T T"
Si       1.78730292       1.03189982       0.27244536
Si       1.78730292      -1.03189982       3.13623803
Si       1.78730292       1.03189982       2.59134731
Si       1.78730292      -1.03189982      -0.27244536
