320
Lattice="17.82277229767026 1.3968990124634205e-09 -1.3016760742157139e-15 -5.940924100540427 16.803470867836204 -2.419501786820327e-09 -5.940924098564913 -8.401735432521198 14.55223264491091" Properties=species:S:1:pos:R:3 pbc="T T T"
In      -4.25505494       3.00877820       5.70281776
In       4.65633121       3.00877820       5.70281776
In      -7.22551699      11.41051363       5.70281776
In       1.68586916      11.41051363       5.70281776
In      -7.22551699      -1.19208952      12.97893408
In       1.68586916      -1.19208952      12.97893408
In     -10.19597904       7.20964592      12.97893408
In      -1.28459289       7.20964592      12.97893408
In       7.22551699       1.19208952       1.57329855
In      16.13690314       1.19208952       1.57329855
In       4.25505494       9.59382495       1.57329855
In      13.16644109       9.59382495       1.57329855
In       4.25505494      -3.00877820       8.84941487
In      13.16644109      -3.00877820       8.84941487
In       1.28459289       5.39295724       8.84941487
In      10.19597904       5.39295724       8.84941487
In       1.28459289      -0.90834434       5.21135671
In      10.19597904      -0.90834434       5.21135671
In      -1.68586916       7.49339109       5.21135671
In       7.22551699       7.49339109       5.21135671
In      -1.68586916      -5.10921206      12.48747303
In       7.22551699      -5.10921206      12.48747303
In      -4.65633121       3.29252338      12.48747303
In       4.25505494       3.29252338      12.48747303
In       4.45569307       6.30130157       3.63805816
In      13.36707922       6.30130158       3.63805816
In       1.48523102      14.70303701       3.63805816
In      10.39661717      14.70303701       3.63805816
In       1.48523102       2.10043386      10.91417448
In      10.39661717       2.10043386      10.91417448
In      -1.48523103      10.50216929      10.91417448
In       7.42615512      10.50216929      10.91417448
In      -1.28459289       4.05899513       3.39232763
In       7.62679326       4.05899513       3.39232763
In      -4.25505494      12.46073056       3.39232763
In       4.65633121      12.46073056       3.39232763
In      -4.25505494      -0.14187259      10.66844395
In       4.65633121      -0.14187259      10.66844395
In      -7.22551699       8.25986285      10.66844395
In       1.68586916       8.25986285      10.66844395
In       4.65633121      -2.86690561       5.45708724
In      13.56771736      -2.86690561       5.45708724
In       1.68586916       5.53482982       5.45708724
In      10.59725531       5.53482982       5.45708724
In       1.68586916      -7.06777333      12.73320356
In      10.59725531      -7.06777333      12.73320356
In      -1.28459289       1.33396211      12.73320356
In       7.62679326       1.33396211      12.73320356
In      -1.28459289       1.33396210       5.45708724
In       7.62679326       1.33396210       5.45708724
In      -4.25505494       9.73569753       5.45708724
In       4.65633121       9.73569753       5.45708724
In      -4.25505494      -2.86690562      12.73320356
In       4.65633121      -2.86690562      12.73320356
In      -7.22551699       5.53482982      12.73320356
In       1.68586916       5.53482982      12.73320356
In      -1.68586916       7.06777334       1.81902908
In       7.22551699       7.06777334       1.81902908
In      -4.65633121      15.46950877       1.81902908
In       4.25505494      15.46950877       1.81902908
In      -4.65633121       2.86690562       9.09514540
In       4.25505494       2.86690562       9.09514540
In      -7.62679326      11.26864106       9.09514540
In       1.28459289      11.26864106       9.09514540
In       4.25505494       0.14187259       3.88378868
In      13.16644109       0.14187259       3.88378868
In       1.28459289       8.54360802       3.88378868
In      10.19597904       8.54360802       3.88378868
In       1.28459289      -4.05899513      11.15990500
In      10.19597904      -4.05899513      11.15990500
In      -1.68586916       4.34274031      11.15990500
In       7.22551699       4.34274031      11.15990500
In       7.42615512       4.20086772      -0.00000000
In      16.33754127       4.20086772      -0.00000000
In       4.45569307      12.60260315      -0.00000000
In      13.36707922      12.60260316      -0.00000000
In       4.45569307       0.00000000       7.27611632
In      13.36707922       0.00000001       7.27611632
In       1.48523102       8.40173544       7.27611632
In      10.39661717       8.40173544       7.27611632
In       4.25505494       6.44317416       0.24573052
In      13.16644109       6.44317416       0.24573052
In       1.28459289      14.84490959       0.24573052
In      10.19597904      14.84490959       0.24573052
In       1.28459289       2.24230644       7.52184684
In      10.19597904       2.24230644       7.52184684
In      -1.68586916      10.64404188       7.52184684
In       7.22551699      10.64404188       7.52184684
In      -1.28459289      -2.24230644       7.03038579
In       7.62679326      -2.24230644       7.03038579
In      -4.25505494       6.15942899       7.03038579
In       4.65633121       6.15942899       7.03038579
In      -4.25505494      -6.44317416      14.30650211
In       4.65633121      -6.44317416      14.30650211
In      -7.22551699       1.95856128      14.30650211
In       1.68586916       1.95856128      14.30650211
In       4.25505494       2.86690562       1.81902908
In      13.16644109       2.86690562       1.81902908
In       1.28459289      11.26864105       1.81902908
In      10.19597904      11.26864105       1.81902908
In       1.28459289      -1.33396210       9.09514540
In      10.19597904      -1.33396210       9.09514540
In      -1.68586916       7.06777334       9.09514540
In       7.22551699       7.06777334       9.09514540
In       1.68586916       5.10921206       2.06475960
In      10.59725531       5.10921206       2.06475960
In      -1.28459289      13.51094749       2.06475960
In       7.62679326      13.51094749       2.06475960
In      -1.28459289       0.90834434       9.34087592
In       7.62679326       0.90834434       9.34087592
In      -4.25505494       9.31007978       9.34087592
In       4.65633121       9.31007978       9.34087592
In       1.48523102       8.40173543      -0.00000000
In      10.39661717       8.40173543      -0.00000000
In      -1.48523103      16.80347087      -0.00000000
In       7.42615512      16.80347087      -0.00000000
In      -1.48523103       4.20086772       7.27611632
In       7.42615512       4.20086772       7.27611632
In      -4.45569308      12.60260315       7.27611632
In       4.45569307      12.60260315       7.27611632
In       1.48523102       2.10043386       3.63805816
In      10.39661717       2.10043386       3.63805816
In      -1.48523103      10.50216929       3.63805816
In       7.42615512      10.50216929       3.63805816
In      -1.48523103      -2.10043386      10.91417448
In       7.42615512      -2.10043386      10.91417448
In      -4.45569308       6.30130158      10.91417448
In       4.45569307       6.30130158      10.91417448
O        0.88528657       4.20082734       3.95955174
O        9.78667272       4.20082734       3.95955174
O       -2.09517548      12.60256277       3.95955174
O        6.81621067      12.60256277       3.95955174
O       -2.09517548      -0.00004038      11.23566806
O        6.81621067      -0.00004038      11.23566806
O       -5.06563753       8.40169506      11.23566806
O        3.84574862       8.40169506      11.23566806
O       -2.09517548       3.42909259       5.29637542
O        6.81621067       3.42909259       5.29637542
O       -5.06563753      11.83082802       5.29637542
O        3.84574862      11.83082802       5.29637542
O       -5.06563753      -0.77177513      12.57249174
O        3.84574862      -0.77177513      12.57249174
O       -8.03609958       7.62996031      12.57249174
O        0.87528657       7.62996031      12.57249174
O       -0.43591245       2.25581645       0.05243298
O        8.47547370       2.25581645       0.05243298
O       -3.40637450      10.65755188       0.05243298
O        5.50501165      10.65755188       0.05243298
O       -3.40637450      -1.94505127       7.32854930
O        5.50501165      -1.94505127       7.32854930
O       -6.37683655       6.45668417       7.32854930
O        2.53454960       6.45668417       7.32854930
O       -0.87528658      -0.77181551       1.97981084
O        8.03609957      -0.77181551       1.97981084
O       -3.84574863       7.62991992       1.97981084
O        5.06563752       7.62991992       1.97981084
O       -3.84574863      -4.97268323       9.25592716
O        5.06563752      -4.97268323       9.25592716
O       -6.81621068       3.42905221       9.25592716
O        2.09517547       3.42905221       9.25592716
O        3.93137132       5.00295542       1.92737786
O       12.84275747       5.00295542       1.92737786
O        0.96090927      13.40469085       1.92737786
O        9.87229542      13.40469085       1.92737786
O        0.96090927       0.80208770       9.20349418
O        9.87229542       0.80208770       9.20349418
O       -2.00955278       9.20382314       9.20349418
O        6.90183337       9.20382314       9.20349418
O        2.00955278       2.93275338       1.65831726
O       10.92093893       2.93275338       1.65831726
O       -0.96090927      11.33448881       1.65831726
O        7.95047688      11.33448881       1.65831726
O       -0.96090927      -1.26811434       8.93443358
O        7.95047688      -1.26811434       8.93443358
O       -3.93137132       7.13362110       8.93443358
O        4.98001483       7.13362110       8.93443358
O        2.00955277       6.27106976       0.26906060
O       10.92093892       6.27106976       0.26906060
O       -0.96090928      14.67280519       0.26906060
O        7.95047687      14.67280519       0.26906060
O       -0.96090928       2.07020204       7.54517692
O        7.95047687       2.07020204       7.54517692
O       -3.93137133      10.47193748       7.54517692
O        4.98001482      10.47193748       7.54517692
O       -2.27210830       5.96034496       3.69049114
O        6.63927785       5.96034496       3.69049114
O       -5.24257035      14.36208039       3.69049114
O        3.66881580      14.36208039       3.69049114
O       -5.24257035       1.75947724      10.96660746
O        3.66881580       1.75947724      10.96660746
O       -8.21303240      10.16121268      10.96660746
O        0.69835375      10.16121268      10.96660746
O        3.40637450       1.94505127       7.22368334
O       12.31776065       1.94505127       7.22368334
O        0.43591245      10.34678670       7.22368334
O        9.34729860      10.34678670       7.22368334
O        0.43591245      -2.25581645      14.49979966
O        9.34729860      -2.25581645      14.49979966
O       -2.53454960       6.14591899      14.49979966
O        6.37683655       6.14591899      14.49979966
O        5.24257035      -1.75947724       3.58562518
O       14.15395650      -1.75947724       3.58562518
O        2.27210830       6.64225819       3.58562518
O       11.18349445       6.64225819       3.58562518
O        2.27210830      -5.96034496      10.86174150
O       11.18349445      -5.96034496      10.86174150
O       -0.69835375       2.44139048      10.86174150
O        8.21303240       2.44139048      10.86174150
O        6.37683655       3.27375038       1.71068029
O       15.28822270       3.27375038       1.71068029
O        3.40637450      11.67548581       1.71068029
O       12.31776065      11.67548581       1.71068029
O        3.40637450      -0.92711734       8.98679661
O       12.31776065      -0.92711734       8.98679661
O        0.43591245       7.47461810       8.98679661
O        9.34729860       7.47461810       8.98679661
O        3.66881580       2.31632046       3.90711876
O       12.58020195       2.31632046       3.90711876
O        0.69835375      10.71805589       3.90711876
O        9.60973990      10.71805589       3.90711876
O        0.69835375      -1.88454726      11.18323508
O        9.60973990      -1.88454726      11.18323508
O       -2.27210830       6.51718818      11.18323508
O        6.63927785       6.51718818      11.18323508
O        0.69835375       4.32593774       6.95462273
O        9.60973990       4.32593774       6.95462273
O       -2.27210830      12.72767317       6.95462273
O        6.63927785      12.72767317       6.95462273
O       -2.27210830       0.12507002      14.23073905
O        6.63927785       0.12507002      14.23073905
O       -5.24257035       8.52680546      14.23073905
O        3.66881580       8.52680546      14.23073905
O        2.27210830      -0.12507002       0.32149358
O       11.18349445      -0.12507002       0.32149358
O       -0.69835375       8.27666541       0.32149358
O        8.21303240       8.27666541       0.32149358
O       -0.69835375      -4.32593774       7.59760990
O        8.21303240      -4.32593774       7.59760990
O       -3.66881580       4.07579770       7.59760990
O        5.24257035       4.07579770       7.59760990
O       -3.40637450       0.92711734       5.56543602
O        5.50501165       0.92711734       5.56543602
O       -6.37683655       9.32885277       5.56543602
O        2.53454960       9.32885277       5.56543602
O       -6.37683655      -3.27375038      12.84155234
O        2.53454960      -3.27375038      12.84155234
O       -9.34729860       5.12798506      12.84155234
O       -0.43591245       5.12798506      12.84155234
O        5.06563752       0.77177513       1.97974090
O       13.97702367       0.77177513       1.97974090
O        2.09517547       9.17351056       1.97974090
O       11.00656162       9.17351056       1.97974090
O        2.09517547      -3.42909259       9.25585722
O       11.00656162      -3.42909259       9.25585722
O       -0.87528658       4.97264285       9.25585722
O        8.03609957       4.97264285       9.25585722
O        0.96090927       1.26811434       5.61779906
O        9.87229542       1.26811434       5.61779906
O       -2.00955278       9.66984977       5.61779906
O        6.90183337       9.66984977       5.61779906
O       -2.00955278      -2.93275338      12.89391538
O        6.90183337      -2.93275338      12.89391538
O       -4.98001483       5.46898206      12.89391538
O        3.93137132       5.46898206      12.89391538
O        3.40637450      -1.01793392       5.61786900
O       12.31776065      -1.01793392       5.61786900
O        0.43591245       7.38380151       5.61786900
O        9.34729860       7.38380151       5.61786900
O        0.43591245      -5.21880164      12.89398532
O        9.34729860      -5.21880164      12.89398532
O       -2.53454960       3.18293380      12.89398532
O        6.37683655       3.18293380      12.89398532
O        2.09517547       0.00004038       3.31656457
O       11.00656162       0.00004038       3.31656457
O       -0.87528658       8.40177581       3.31656457
O        8.03609957       8.40177581       3.31656457
O       -0.87528658      -4.20082734      10.59268089
O        8.03609957      -4.20082734      10.59268089
O       -3.84574863       4.20090810      10.59268089
O        5.06563752       4.20090810      10.59268089
O        0.96090927      -2.07020204       7.00705572
O        9.87229542      -2.07020204       7.00705572
O       -2.00955278       6.33153339       7.00705572
O        6.90183337       6.33153339       7.00705572
O       -2.00955278      -6.27106976      14.28317204
O        6.90183337      -6.27106976      14.28317204
O       -4.98001483       2.13066568      14.28317204
O        3.93137132       2.13066568      14.28317204
O       -0.69835375       1.88454726       3.36899755
O        8.21303240       1.88454726       3.36899755
O       -3.66881580      10.28628269       3.36899755
O        5.24257035      10.28628269       3.36899755
O       -3.66881580      -2.31632046      10.64511387
O        5.24257035      -2.31632046      10.64511387
O       -6.63927785       6.08541498      10.64511387
O        2.27210830       6.08541498      10.64511387
O       -0.96090927      -0.80208770       5.34873846
O        7.95047688      -0.80208770       5.34873846
O       -3.93137132       7.59964773       5.34873846
O        4.98001483       7.59964773       5.34873846
O       -3.93137132      -5.00295542      12.62485478
O        4.98001483      -5.00295542      12.62485478
O       -6.90183337       3.39878002      12.62485478
O        2.00955278       3.39878002      12.62485478
O       -0.43591245       5.21880164       1.65824731
O        8.47547370       5.21880164       1.65824731
O       -3.40637450      13.62053707       1.65824731
O        5.50501165      13.62053707       1.65824731
O       -3.40637450       1.01793392       8.93436363
O        5.50501165       1.01793392       8.93436363
O       -6.37683655       9.41966936       8.93436363
O        2.53454960       9.41966936       8.93436363
O        3.84574862       4.97268323       5.29630547
O       12.75713477       4.97268323       5.29630547
O        0.87528657      13.37441866       5.29630547
O        9.78667272      13.37441866       5.29630547
O        0.87528657       0.77181551      12.57242179
O        9.78667272       0.77181551      12.57242179
O       -2.09517548       9.17355095      12.57242179
O        6.81621067       9.17355095      12.57242179
