4
Lattice="4.705662906146406 -0.14509065994882756 7.548991063260513e-13 1.8886218975782063 4.312472842102859 2.491065872234871e-12 -3.2971424018627693 -2.0836910910783364 2.636550417626411" Properties=species:S:1:pos:R:3:tags:I:1 spacegroup="P 1" unit_cell=conventional n_minim_iter=1 energy=-1924.195708896109 free_energy=-1924.195708896109 pbc="T T T"
Ti       0.00000000       0.00000000       0.00000000        0
Al       3.29714240       2.08369109       0.00000000        1
Al       2.35283145      -0.07254533       1.31827521        2
Al       0.94431095       2.15623642       1.31827521        3
