4
Lattice="5.087887319999521 7.565505387386569e-13 8.949401069404353e-13 2.183719785742836 4.595428737165575 2.682621221191863e-12 -3.635803552871657 -2.297714368584526 2.718094661033344" Properties=species:S:1:pos:R:3:tags:I:1 spacegroup="P 1" unit_cell=conventional n_minim_iter=1 energy=-1924.4984375541674 free_energy=-1924.4984375541674 pbc="T T T"
Ti       0.00000000       0.00000000       0.00000000        0
Al       3.63580355       2.29771437       0.00000000        1
Al       2.54394366      -0.00000000       1.35904733        2
Al       1.09185989       2.29771437       1.35904733        3
4
Lattice="4.987449222941894 -0.011365985452898865 8.714840505005912e-13 2.1303459158264335 4.509590360107076 2.630181939594326e-12 -3.558897569384635 -2.2491121873284268 2.674045885262238" Properties=species:S:1:pos:R:3:tags:I:1 spacegroup="P 1" unit_cell=conventional n_minim_iter=2 stress="0.016689318151169797 0.011563821893573271 8.958526489851671e-15 0.011563821893573271 0.00569920248968035 5.822220425235934e-15 8.958526489851671e-15 5.822220425235934e-15 -0.0016087720293555313" pbc="T T T"
Ti       0.00000000       0.00000000       0.00000000        0
Al       3.55889757       2.24911219       0.00000000        1
Al       2.49372461      -0.00568299       1.33702294        2
Al       1.06517296       2.25479518       1.33702294        3
4
Lattice="4.7607950923923745 -0.2397955420781917 7.171496356513047e-13 1.826746256246068 4.402916071087307 2.5234687060637044e-12 -3.2937706743197044 -2.0815602645059315 2.746061438491392" Properties=species:S:1:pos:R:3:tags:I:1 spacegroup="P 1" unit_cell=conventional n_minim_iter=3 stress="-0.06091616817195003 0.012000768240015022 8.811543501557928e-15 0.012000768240015022 -0.07232155232593665 5.851911867687966e-15 8.811543501557928e-15 5.851911867687966e-15 -0.07990566329842064" pbc="T T T"
Ti       0.00000000       0.00000000       0.00000000        0
Al       3.29377067       2.08156026       0.00000000        1
Al       2.38039755      -0.11989777       1.37303072        2
Al       0.91337313       2.20145804       1.37303072        3
4
Lattice="4.723225201289231 -0.2872674816222449 6.867768427025126e-13 1.7677441575636057 4.389357527189037 2.5058885311346694e-12 -3.2454846794269048 -2.0510450227847787 2.7661204634300214" Properties=species:S:1:pos:R:3:tags:I:1 spacegroup="P 1" unit_cell=conventional n_minim_iter=4 stress="-0.0753350960892148 0.0015051033011339603 1.1296494423573188e-15 0.0015051033011339603 -0.07676552795803429 7.971280958771413e-16 1.1296494423573188e-15 7.971280958771413e-16 -0.07771670626867026" pbc="T T T"
Ti       0.00000000       0.00000000       0.00000000        0
Al       3.24548468       2.05104502       0.00000000        1
Al       2.36161260      -0.14363374       1.38306023        2
Al       0.88387208       2.19467876       1.38306023        3
4
Lattice="4.74150235860227 -0.31114184321811095 6.775026560477431e-13 1.7540251553692854 4.416112500555646 2.516516010825958e-12 -3.2477637569862687 -2.0524853286701656 2.796066597495885" Properties=species:S:1:pos:R:3:tags:I:1 spacegroup="P 1" unit_cell=conventional n_minim_iter=5 stress="-0.012006773672437441 -0.006258099665486454 -4.3385279799711e-15 -0.006258099665486454 -0.006059151875953744 -2.7824946572438864e-15 -4.3385279799711e-15 -2.7824946572438864e-15 -0.002104228208515451" pbc="T T T"
Ti       0.00000000       0.00000000       0.00000000        0
Al       3.24776376       2.05248533       0.00000000        1
Al       2.37075118      -0.15557092       1.39803330        2
Al       0.87701258       2.20805625       1.39803330        3
4
Lattice="4.767634917409859 -0.28383493995148945 6.953582419545436e-13 1.7899050996827268 4.42799556379326 2.5295287534813476e-12 -3.278770008546783 -2.0720803119222797 2.7869437365761813" Properties=species:S:1:pos:R:3:tags:I:1 spacegroup="P 1" unit_cell=conventional n_minim_iter=6 stress="0.0029844308416639145 0.0027758308648160655 2.016761749068028e-15 0.0027758308648160655 0.0003463149538736475 1.3945352800527514e-15 2.016761749068028e-15 1.3945352800527514e-15 -0.0014079235164116482" pbc="T T T"
Ti       0.00000000       0.00000000       0.00000000        0
Al       3.27877001       2.07208031       0.00000000        1
Al       2.38381746      -0.14191747       1.39347187        2
Al       0.89495255       2.21399778       1.39347187        3
