4
Lattice="4.807038645781499 -0.28618078963796356 7.011052649044138e-13 1.804698374667219 4.464592228061615 2.5504348978562993e-12 -3.305868510224853 -2.0892057192132314 2.8099773739845486" Properties=species:S:1:pos:R:3:tags:I:1 spacegroup="P 1" unit_cell=conventional n_minim_iter=6 pbc="T T T"
Ti       0.00000000       0.00000000       0.00000000        0
Al       3.30586851       2.08920572       0.00000000        1
Al       2.40351932      -0.14309039       1.40498869        2
Al       0.90234919       2.23229611       1.40498869        3
