4
Lattice="4.767634917409859 -0.28383493995148945 6.953582419545436e-13 1.7899050996827268 4.42799556379326 2.5295287534813476e-12 -3.278770008546783 -2.0720803119222797 2.7869437365761813" Properties=species:S:1:pos:R:3:tags:I:1 spacegroup="P 1" unit_cell=conventional n_minim_iter=6 pbc="T T T"
Ti       0.00000000       0.00000000       0.00000000        0
Al       3.27877001       2.07208031       0.00000000        1
Al       2.38381746      -0.14191747       1.39347187        2
Al       0.89495255       2.21399778       1.39347187        3
