2
Lattice="4.444217469320894 1.2138082629719332e-17 -3.211735956619732e-16 1.2138082629718563e-17 4.444217469320894 4.0979615971495436e-16 2.222108734660447 2.222108734660447 1.2040928631060173" Properties=species:S:1:pos:R:3 cutoff=-1.0 nneightol=1.2 n_minim_iter=1 energy=-324.893102095637 free_energy=-324.893102095637 pbc="T T T"
Si      -0.00000000      -1.11105437      -0.30102322
Si      -0.00000000       1.11105437       0.30102322
