2
Lattice="4.971587967022171 -1.4720296176594865e-16 2.194299793834185e-15 -1.4720296176593755e-16 4.971587967022171 -4.422330898629782e-15 2.485793983511085 2.4857939835110865 1.489840835167133" Properties=species:S:1:pos:R:3 cutoff=-1.0 nneightol=1.2 n_minim_iter=1 energy=-325.528223475956 free_energy=-325.528223475956 pbc="T T T"
Si      -0.00000000      -1.24289699      -0.37246021
Si      -0.00000000       1.24289699       0.37246021
