4
Lattice="3.9663849653615495 0.0 0.0 0.0 3.9663849653615495 0.0 0.0 0.0 3.9663849653615495" Properties=species:S:1:pos:R:3 n_minim_iter=1 stress="0.008704343008392804 -2.451352090352726e-19 5.540998001120335e-20 -2.451352090352726e-19 0.008704343008392809 -1.3830824793441352e-19 5.540998001120335e-20 -1.3830824793441352e-19 0.008704343008392772" pbc="T T T"
Al       0.00000000       0.00000000       0.00000000
Al       1.98319248       1.98319248       0.00000000
Al       1.98319248       0.00000000       1.98319248
Al       0.00000000       1.98319248       1.98319248
