4
Lattice="3.8619575384225184 0.0 0.0 0.0 3.8619575384225184 0.0 0.0 0.0 3.8619575384225184" Properties=species:S:1:pos:R:3 n_minim_iter=1 stress="-0.031191013902782675 8.174339768661213e-18 3.370349962912082e-20 8.174339768661213e-18 -0.031191013902782665 -6.494028438114106e-20 3.370349962912082e-20 -6.494028438114106e-20 -0.031191013902782665" pbc="T T T"
Al       0.00000000       0.00000000       0.00000000
Al       1.93097877       1.93097877       0.00000000
Al       1.93097877       0.00000000       1.93097877
Al       0.00000000       1.93097877       1.93097877
