4
Lattice="3.8619575384225184 0.0 0.0 0.0 3.8619575384225184 0.0 0.0 0.0 3.8619575384225184" Properties=species:S:1:pos:R:3 n_minim_iter=1 stress="-0.02040259704041495 1.8893910985801678e-17 3.1384255043641904e-18 1.8893910985801678e-17 -0.02040259704041496 2.6959839957932535e-18 3.1384255043641904e-18 2.6959839957932535e-18 -0.02040259704041494" pbc="T T T"
Al       0.00000000       0.00000000       0.00000000
Al       1.93097877       1.93097877       0.00000000
Al       1.93097877       0.00000000       1.93097877
Al       0.00000000       1.93097877       1.93097877
