1
Lattice="2.817690028864476 1.120423679665059e-16 -2.754900541692147e-50 1.4088450144322378 2.440191144986745 -3.3513313350788176e-50 3.542645274474582e-49 2.6608302802647535e-49 2.6170250831600237" Properties=species:S:1:pos:R:3 cutoff=-1.0 nneightol=1.2 n_minim_iter=1 energy=-162.706509906919 free_energy=-162.706509906919 pbc="T T T"
Si       0.00000000       0.00000000       0.00000000
