1
Lattice="2.601723684336231 1.0345470204366254e-16 -2.543746797514009e-50 1.3008618421681155 2.2531588042628217 -3.094463201847137e-50 1.8535589641582473e-49 1.2840859784553982e-49 2.4164390233170363" Properties=species:S:1:pos:R:3 cutoff=-1.0 nneightol=1.2 n_minim_iter=1 energy=-162.81183506088644 free_energy=-162.81183506088644 pbc="T T T"
Si       0.00000000       0.00000000       0.00000000
