1
Lattice="2.6477814271351345 1.0528613790549192e-16 -2.5887781882227145e-50 1.3238907135675673 2.293045979567642 -3.149243804072277e-50 9.24605929210516e-50 5.111094995365503e-50 2.4592167124679754" Properties=species:S:1:pos:R:3 cutoff=-1.0 nneightol=1.2 n_minim_iter=1 energy=-162.83441087530613 free_energy=-162.83441087530613 pbc="T T T"
Si       0.00000000       0.00000000       0.00000000
