4
Lattice="1.8767509524829036 -3.2506280028536727 -7.238119096651027e-18 1.8767509524829027 3.2506280028536727 7.23811909665101e-18 2.9323562591210763e-32 -1.3747695601967726e-17 6.174068663658962" Properties=species:S:1:pos:R:3 cutoff=-1.0 nneightol=1.2 n_minim_iter=1 energy=-652.5125288349388 free_energy=-652.5125288349388 pbc="T T T"
Si       1.87675095       1.08354267       0.38876852
Si       1.87675095      -1.08354267       3.47580285
Si       1.87675095       1.08354267       2.69826581
Si       1.87675095      -1.08354267      -0.38876852
4
Lattice="1.8755398656413051 -3.2485303389116473 -6.7002055079230204e-18 1.8755398656413043 3.2485303389116473 6.700205507922997e-18 2.888268362040149e-32 -1.4778268571521407e-17 6.182044764421126" Properties=species:S:1:pos:R:3 cutoff=-1.0 nneightol=1.2 n_minim_iter=2 stress="-0.05134509812913352 -6.165246405283974e-16 1.1171999909889865e-16 -6.165246405283974e-16 -0.051345098129131114 1.8628497908344044e-16 1.1171999909889865e-16 1.8628497908344044e-16 -0.05056291863777764" pbc="T T T"
Si       1.87553987       1.08284345       0.38975323
Si       1.87553987      -1.08284345       3.48077561
Si       1.87553987       1.08284345       2.70126915
Si       1.87553987      -1.08284345      -0.38975323
4
Lattice="1.874758238701935 -3.2471765213400934 -5.950891765427313e-18 1.8747582387019341 3.2471765213400934 5.9508917654272846e-18 2.850058665366084e-32 -1.6205865261028614e-17 6.187200693246215" Properties=species:S:1:pos:R:3 cutoff=-1.0 nneightol=1.2 n_minim_iter=3 stress="-0.05089528979459373 1.2361379526340198e-17 -3.5606935711980226e-17 1.2361379526340198e-17 -0.05089528979459386 -1.9216508062651424e-16 -3.5606935711980226e-17 -1.9216508062651424e-16 -0.05069907377737343" pbc="T T T"
Si       1.87475824       1.08239217       0.39227680
Si       1.87475824      -1.08239217       3.48587715
Si       1.87475824       1.08239217       2.70132355
Si       1.87475824      -1.08239217      -0.39227680
