4
Lattice="1.9427270195150588 -3.3649019030369365 -8.468726797878847e-18 1.942727019515059 3.3649019030369365 8.468726797878853e-18 -8.194516913149053e-35 1.5945870338842673e-17 6.384741474051797" Properties=species:S:1:pos:R:3 cutoff=-1.0 nneightol=1.2 n_minim_iter=4 pbc="T T T"
Si       1.94272702       1.12163397       0.39975738
Si       1.94272702      -1.12163397       3.59212812
Si       1.94272702       1.12163397       2.79261336
Si       1.94272702      -1.12163397      -0.39975738
