8
Lattice="5.34438 0.0 0.0 0.0 5.35473 -3.2788264773991526e-16 0.0 3.2788264773991536e-16 5.35473" Properties=species:S:1:pos:R:3 unique_starting_index=2 config_type=initial n_minim_iter=1 pbc="T T T"
Si       2.76078165       1.74143209       3.47396141
Si       2.58359835       1.74143209       1.88076859
Si       3.46724669       3.61329791       2.58860178
Si       1.87713331       3.61329791       2.76612822
Si       5.25578835       3.61329791       0.79659641
Si       0.08859165       3.61329791       4.55813359
Si       4.54932331       1.74143209       5.26596678
Si       0.79505669       1.74143209       0.08876322
8
Lattice="5.385157095135031 0.0 0.0 0.0 5.381077244516266 -3.294959511730752e-16 0.0 3.303820445217474e-16 5.395548247082705" Properties=species:S:1:pos:R:3 unique_starting_index=2 config_type=initial n_minim_iter=2 pbc="T T T"
Si       2.78211017       1.74997259       3.50255003
Si       2.60304692       1.74997259       1.89299822
Si       3.49581329       3.63110494       2.60806912
Si       1.88934381       3.63110494       2.78747912
Si       5.29562547       3.63110465       0.80477591
Si       0.08953162       3.63110465       4.59077234
Si       4.58192235       1.74997231       5.30584325
Si       0.80323474       1.74997231       0.08970500
8
Lattice="5.632425783721499 0.0 0.0 0.0 5.533067408389255 -3.3881708885332918e-16 0.0 3.4552346653642323e-16 5.643058106528518" Properties=species:S:1:pos:R:3 unique_starting_index=2 config_type=initial n_minim_iter=3 pbc="T T T"
Si       2.91172577       1.79995915       3.67785070
Si       2.72070001       1.79995915       1.96520740
Si       3.67099206       3.73310989       2.72583133
Si       1.96143373       3.73310989       2.91722677
Si       5.53691290       3.73310825       0.85632165
Si       0.09551288       3.73310825       4.78673646
Si       4.77764662       1.79995752       5.54736039
Si       0.85477917       1.79995752       0.09569772
8
Lattice="5.698687919313637 0.0 0.0 0.0 5.544165783536233 -3.4025987812946106e-16 0.0 3.4881668223773513e-16 5.7091861252372755" Properties=species:S:1:pos:R:3 unique_starting_index=2 config_type=initial n_minim_iter=4 pbc="T T T"
Si       2.94826145       1.80760862       3.73695017
Si       2.75042647       1.80760862       1.97223596
Si       3.73022348       3.73655947       2.75548266
Si       1.96846444       3.73655947       2.95370346
Si       5.59977043       3.73655716       0.88235711
Si       0.09891749       3.73655716       4.82682902
Si       4.81780840       1.80760631       5.61007573
Si       0.88087952       1.80760631       0.09911040
8
Lattice="113.88732641072417 0.0 0.0 0.0 5.611375953625674 -4.57498582883848e-16 0.0 9.429106620655462e-15 154.94865436612957" Properties=species:S:1:pos:R:3 unique_starting_index=2 config_type=initial n_minim_iter=5 pbc="T T T"
Si      61.71881831       1.88021757     134.74349836
Si      52.16850810       1.88021757      20.20515600
Si      97.21363073       3.73181546      71.25500790
Si      16.67369568       3.73181546      83.69364647
Si     109.11217131       3.73115838      57.26917118
Si       4.77515510       3.73115838      97.67948318
Si      73.61735889       1.87956050     148.72933508
Si      40.26996752       1.87956050       6.21931928
