20
Lattice="1.778476518463662 -1.0253795118229711e-16 -1.1393733476353039e-17 4.739781806551489e-16 8.220947023416283 -8.686939805807658e-16 3.4378774830562245e-16 5.6704488522283805e-15 53.66269440706349" Properties=species:S:1:pos:R:3 unique_starting_index=4 config_type=initial n_minim_iter=1 energy=-3223.098680385359 free_energy=-3223.098680385359 pbc="T T T"
Si       1.06083052       4.56428717      32.96094126
Si       1.06083052       3.65665985      20.70175315
Si       0.72970475       3.26939102      28.89643509
Si       0.72970475       4.95155600      24.76625932
Si       0.71764600       0.45381366      47.53310035
Si       0.71764600       7.76713336       6.12959406
Si       1.04877176       7.37986453      51.59760652
Si       1.04877176       0.84108249       2.06508788
Si       0.91880708       6.68750648      10.16647823
Si       0.91880708       1.53344054      43.49621618
Si       0.86558610       6.60356969      44.34711197
Si       0.86558610       1.61737733       9.31558244
Si       0.85966944       2.57703297      16.66486897
Si       0.85966944       5.64391405      36.99782543
Si       0.91289042       2.49309618      36.14692965
Si       0.91289042       5.72785084      17.51576476
Si       1.70764538       4.65690943      49.87071984
Si       1.70764538       3.56403759       3.79197457
Si       0.07083114       7.67451110      23.03937263
Si       0.07083114       0.54643592      30.62332177
20
Lattice="1.7487252105415254 -1.0041092510985135e-16 -1.0391409211204094e-17 4.761049887053772e-16 8.226385910072613 -8.61246805025544e-16 3.758893089821649e-16 5.726604510586203e-15 53.69857455796342" Properties=species:S:1:pos:R:3 unique_starting_index=4 config_type=initial n_minim_iter=2 stress="-0.4990474824069978 1.3337204140629974e-16 5.789036452419993e-16 1.3337204140629974e-16 -0.7528878354671256 1.3337204140629974e-16 5.789036452419993e-16 1.3337204140629974e-16 -0.6411163131105952" pbc="T T T"
Si       1.04308178       4.56732259      32.98296748
Si       1.04308178       3.65906332      20.71560708
Si       0.71749907       3.27157235      28.91572967
Si       0.71749907       4.95481356      24.78284489
Si       0.70564343       0.45412964      47.56489436
Si       0.70564343       7.77225627       6.13368020
Si       1.03122614       7.38476531      51.63213217
Si       1.03122614       0.84162060       2.06644239
Si       0.90343584       6.69191102      10.17328834
Si       0.90343584       1.53447489      43.52528622
Si       0.85110587       6.60790885      44.37674904
Si       0.85110587       1.61847706       9.32182552
Si       0.84528937       2.57871807      16.67599894
Si       0.84528937       5.64766784      37.02257562
Si       0.89761934       2.49471590      36.17111280
Si       0.89761934       5.73167001      17.52746176
Si       1.67907877       4.65996799      49.90405558
Si       1.67907877       3.56641792       3.79451898
Si       0.06964644       7.67961087      23.05476830
Si       0.06964644       0.54677504      30.64380626
20
Lattice="1.7502079656722767 -1.9324798758952812e-16 -5.110634785815108e-15 1.8441472398793246e-16 9.653753294444062 4.749611940467328e-15 -1.3684963000856516e-13 4.453756089165529e-14 61.57604199456537" Properties=species:S:1:pos:R:3 unique_starting_index=4 config_type=initial n_minim_iter=3 stress="0.4437217907690568 8.366208247064108e-17 1.0001033634117962e-15 8.366208247064108e-17 -0.5551604312264223 -4.258229258811814e-15 1.0001033634117962e-15 -4.258229258811814e-15 0.14991543646780897" pbc="T T T"
Si       1.04336445       5.36379680      37.81885468
Si       1.04336445       4.28995649      23.75718732
Si       0.71847162       3.84539902      33.14990724
Si       0.71847162       5.80835427      28.42613475
Si       0.70684351       0.53692015      54.54520832
Si       0.70684351       9.11683314       7.03083368
Si       1.03173635       8.67227567      59.21415575
Si       1.03173635       0.98147763       2.36188625
Si       0.90396200       7.84652821      11.66874143
Si       0.90396200       1.80722508      49.90730056
Si       0.85181690       7.74551675      50.88370311
Si       0.85181690       1.90823654      10.69233888
Si       0.84624597       3.01965156      19.11927957
Si       0.84624597       6.63410173      42.45676243
Si       0.89839107       2.91864010      41.48035988
Si       0.89839107       6.73511319      20.09568211
Si       1.68051539       5.46144099      57.22166013
Si       1.68051539       4.19231230       4.35438187
Si       0.06969258       9.01918895      26.43363913
Si       0.06969258       0.63456435      35.14240287
20
Lattice="1.750192980180203 -1.9768408272682171e-16 -5.2629769131620416e-15 2.9884856724931403e-16 10.884576445409712 3.2161748267309055e-15 -1.4139070475916587e-13 4.205096140622024e-14 61.59499443244245" Properties=species:S:1:pos:R:3 unique_starting_index=4 config_type=initial n_minim_iter=4 stress="0.6995794159204818 7.947794403311386e-18 3.05233151727173e-16 7.947794403311386e-18 -0.09267578324257185 -2.838498001182638e-15 3.05233151727173e-16 -2.838498001182638e-15 0.2970785684946988" pbc="T T T"
Si       1.04341787       6.04803135      37.82907607
Si       1.04341787       4.83654510      23.76591836
Si       0.71830735       4.34284064      33.15717113
Si       0.71830735       6.54173581      28.43782331
Si       0.70677511       0.60574312      54.56341558
Si       0.70677511      10.27883332       7.03157886
Si       1.03188563       9.78512886      59.23532052
Si       1.03188563       1.09944759       2.35967391
Si       0.90395109       8.83997460      11.67331062
Si       0.90395109       2.04460185      49.92168381
Si       0.85186951       8.72533225      50.90008618
Si       0.85186951       2.15924420      10.69490826
Si       0.84624189       3.39768638      19.12418660
Si       0.84624189       7.48689007      42.47080783
Si       0.89832347       3.28304403      41.49240547
Si       0.89832347       7.60153242      20.10258896
Si       1.68034850       6.15152099      57.23620779
Si       1.68034850       4.73305545       4.35878664
Si       0.06984448      10.17534368      26.43871058
Si       0.06984448       0.70923277      35.15628386
20
Lattice="1.749569138397593 -2.0201332577130976e-16 -5.366749616988125e-15 3.2510982864417707e-16 11.297477311823345 -4.357399550405424e-15 -1.4881547182102157e-13 -4.631989847001304e-15 60.11181653724053" Properties=species:S:1:pos:R:3 unique_starting_index=4 config_type=initial n_minim_iter=5 stress="0.7457060172387494 -5.849410813116389e-17 9.424466048097747e-16 -5.849410813116389e-17 0.11385440955160352 -5.267086081689211e-15 9.424466048097747e-16 -5.267086081689211e-15 0.3972435350353351" pbc="T T T"
Si       1.04005429       6.27101882      36.94616705
Si       1.04005429       5.02645850      23.16564949
Si       0.71772969       4.59885213      32.30880334
Si       0.71772969       6.69862518      27.80301319
Si       0.70951485       0.62228016      53.22155776
Si       0.70951485      10.67519715       6.89025878
Si       1.03183945      10.24759079      57.85892146
Si       1.03183945       1.04988652       2.25289507
Si       0.90326600       9.23453208      11.37132120
Si       0.90326600       2.06294524      48.74049534
Si       0.85168836       9.12602103      49.66797870
Si       0.85168836       2.17145629      10.44383784
Si       0.84630313       3.58579342      18.68458707
Si       0.84630313       7.71168389      41.42722947
Si       0.89788078       3.47728237      40.49974611
Si       0.89788078       7.82019494      19.61207043
Si       1.67667666       6.30284504      55.83757756
Si       1.67667666       4.99463227       4.27423897
Si       0.07289248      10.64337093      25.78166930
Si       0.07289248       0.65410638      34.33014724
20
Lattice="1.7483554080613573 -2.091493176113745e-16 -5.46148675896635e-15 3.134316058783195e-16 11.48225710887867 -4.298122185743652e-15 -1.6375818327888983e-13 -5.997615138981616e-15 56.035899521251615" Properties=species:S:1:pos:R:3 unique_starting_index=4 config_type=initial n_minim_iter=6 stress="0.7909441373131795 -5.783417028946589e-17 -3.6768123108089614e-16 -5.783417028946589e-17 0.09267638947008044 -2.589707556989053e-16 -3.6768123108089614e-16 -2.589707556989053e-16 0.11040730217067662" pbc="T T T"
Si       1.03251968       6.40635951      34.43260417
Si       1.03251968       5.07589760      21.60329535
Si       0.72131667       4.76542886      30.01312053
Si       0.72131667       6.71682825      26.02277899
Si       0.71583572       0.66523095      49.62124511
Si       0.71583572      10.81702616       6.41465441
Si       1.02703874      10.50655741      54.04072875
Si       1.02703874       0.97569969       1.99517077
Si       0.90130412       9.41163686      10.58499479
Si       0.90130412       2.07062025      45.45090473
Si       0.85133833       9.27406721      46.25507680
Si       0.85133833       2.20818990       9.78082273
Si       0.84705129       3.67050831      17.43295497
Si       0.84705129       7.81174880      38.60294455
Si       0.89701708       3.53293866      37.79877249
Si       0.89701708       7.94931845      18.23712704
Si       1.67387974       6.37858650      52.05519633
Si       1.67387974       5.10367061       3.98070320
Si       0.07447567      10.84479917      24.03724657
Si       0.07447567       0.63745794      31.99865296
20
Lattice="1.747421375960516 -2.1484220485599544e-16 -5.494914988828204e-15 2.7627181385776774e-16 11.39050956424565 -8.428769464099146e-16 -1.678409065029614e-13 1.6185467062493637e-14 54.98989624188888" Properties=species:S:1:pos:R:3 unique_starting_index=4 config_type=initial n_minim_iter=7 stress="0.8010820166949082 -2.069267800762907e-17 -6.442624723796865e-16 -2.069267800762907e-17 0.046256004078432326 5.40606356418921e-15 -6.442624723796865e-16 5.40606356418921e-15 -0.056135509156812646" pbc="T T T"
Si       1.03590838       6.32399498      33.71130037
Si       1.03590838       5.06651458      21.27859587
Si       0.71945890       4.77066810      29.47040083
Si       0.71945890       6.61984146      25.51949541
Si       0.71151299       0.62874020      48.77354399
Si       0.71151299      10.76176936       6.21635225
Si       1.02796247      10.46592289      53.01444353
Si       1.02796247       0.92458668       1.97545271
Si       0.90271016       9.31009396      10.41098945
Si       0.90271016       2.08041561      44.57890679
Si       0.85222169       9.17147504      45.36989652
Si       0.85222169       2.21903452       9.61999972
Si       0.84471122       3.61483918      17.08395867
Si       0.84471122       7.77567039      37.90593757
Si       0.89519969       3.47622026      37.11494784
Si       0.89519969       7.91428930      17.87494840
Si       1.67222767       6.33120637      51.08071637
Si       1.67222767       5.05930319       3.90917987
Si       0.07519370      10.75455797      23.58576825
Si       0.07519370       0.63595159      31.40412799
20
Lattice="1.7466176021137534 -2.1846324476021053e-16 -5.513386997388468e-15 2.509526768970834e-16 11.319300832712148 7.707234971958414e-16 -1.6774794486744858e-13 2.6562666459617745e-14 55.17847087276316" Properties=species:S:1:pos:R:3 unique_starting_index=4 config_type=initial n_minim_iter=8 stress="0.8032907905164933 1.81050230483182e-16 -3.538570272006879e-15 1.81050230483182e-16 0.0272427233398566 7.083246791247592e-15 -3.538570272006879e-15 7.083246791247592e-15 -0.03658915875375651" pbc="T T T"
Si       1.04418550       6.26427868      33.80872668
Si       1.04418550       5.05502215      21.36974419
Si       0.71437280       4.72610508      29.61077823
Si       0.71437280       6.59319575      25.56769264
Si       0.70243210       0.60462826      48.95897963
Si       0.70243210      10.71467257       6.21949124
Si       1.03224480      10.38575550      53.15692808
Si       1.03224480       0.93354533       2.02154280
Si       0.90598716       9.22787619      10.44769205
Si       0.90598716       2.09142464      44.73077882
Si       0.85375001       9.09028960      45.52398836
Si       0.85375001       2.22901123       9.65448252
Si       0.84063044       3.56822578      17.14154338
Si       0.84063044       7.75107506      38.03692749
Si       0.89286759       3.43063919      37.24371795
Si       0.89286759       7.88866165      17.93475292
Si       1.66984437       6.30652941      51.25345522
Si       1.66984437       5.01277143       3.92501565
Si       0.07677323      10.67242184      23.66421978
Si       0.07677323       0.64687899      31.51425109
20
Lattice="1.7425688669419628 -2.249847974240275e-16 -5.565218532763381e-15 1.760961995500719e-16 10.955859108704638 1.4155314060770082e-15 -1.6668533814706643e-13 2.9364047629040915e-14 55.91077076661786" Properties=species:S:1:pos:R:3 unique_starting_index=4 config_type=initial n_minim_iter=9 stress="0.7955679155217323 1.3771027525716944e-16 -2.3357701294941497e-15 1.3771027525716944e-16 -0.016619998691835704 5.4880248970311846e-15 -2.3357701294941497e-15 5.4880248970311846e-15 0.023269582421149394" pbc="T T T"
Si       1.08153719       6.04049544      34.23905394
Si       1.08153719       4.91536367      21.67171682
Si       0.69061559       4.59436989      29.98379674
Si       0.69061559       6.36148922      25.92697402
Si       0.66103168       0.56256588      49.62710221
Si       0.66103168      10.39329323       6.28366856
Si       1.05195328      10.07229944      53.88235941
Si       1.05195328       0.88355967       2.02841136
Si       0.92341244       8.86019509      10.57446773
Si       0.92341244       2.09566402      45.33630304
Si       0.86148481       8.69760466      46.10501676
Si       0.86148481       2.25825445       9.80575401
Si       0.81915642       3.38226553      17.38091765
Si       0.81915642       7.57359358      38.52985311
Si       0.88108405       3.21967510      37.76113939
Si       0.88108405       7.73618401      18.14963137
Si       1.65440526       6.15535537      51.92069287
Si       1.65440526       4.80050374       3.99007789
Si       0.08816361      10.27843330      23.96530749
Si       0.08816361       0.67742581      31.94546328
20
Lattice="1.7337264648813893 -2.359603661578812e-16 -5.673125453500665e-15 9.325477496822655e-17 10.698349700204153 4.415075085003158e-15 -1.6838101178878062e-13 4.769502821994063e-14 56.13551814674449" Properties=species:S:1:pos:R:3 unique_starting_index=4 config_type=initial n_minim_iter=10 stress="0.723747895508142 -1.548252329696597e-16 -3.58529175852055e-15 -1.548252329696597e-16 -0.025209112652644992 9.799200351178876e-15 -3.58529175852055e-15 9.799200351178876e-15 -0.09282574919238541" pbc="T T T"
Si       1.16700966       5.87409961      34.36976173
Si       1.16700966       4.82425009      21.76575642
Si       0.63512313       4.57111442      30.12753055
Si       0.63512313       6.12723528      26.00798760
Si       0.56671681       0.52492476      49.83351549
Si       0.56671681      10.17342494       6.30200265
Si       1.09860334       9.92028927      54.07574667
Si       1.09860334       0.77806043       2.05977148
Si       0.96613495       8.64049997      10.52250913
Si       0.96613495       2.05784973      45.61300902
Si       0.88131187       8.38306410      46.20520483
Si       0.88131187       2.31528560       9.93031332
Si       0.76759151       3.29132512      17.54524994
Si       0.76759151       7.40702458      38.59026820
Si       0.85241459       3.03388925      37.99807239
Si       0.85241459       7.66446045      18.13744576
Si       1.61337600       6.01731214      52.08567798
Si       1.61337600       4.68103756       4.04984017
Si       0.12035047      10.03021241      24.01791891
Si       0.12035047       0.66813729      32.11759924
20
Lattice="1.7165274045830767 -2.583645352183003e-16 -5.976652614989332e-15 -9.322112497587148e-17 10.072763767690537 6.381805029571862e-15 -1.701074745388553e-13 5.6005379214893856e-14 57.94142600650678" Properties=species:S:1:pos:R:3 unique_starting_index=4 config_type=initial n_minim_iter=11 stress="0.5974299912394703 -1.5346477784935228e-15 -1.2861873279315298e-15 -1.5346477784935228e-15 -0.06642368923763566 6.24941201074572e-15 -1.2861873279315298e-15 6.24941201074572e-15 -0.024936738772450312" pbc="T T T"
Si       1.32411879       5.42203211      35.51865581
Si       1.32411879       4.65073166      22.42277019
Si       0.53130631       4.45488036      31.10680749
Si       0.53130631       5.61788340      26.83461852
Si       0.39240862       0.38565022      51.39348320
Si       0.39240862       9.68711354       6.54794281
Si       1.18522109       9.49126225      55.80533152
Si       1.18522109       0.58150152       2.13609448
Si       1.04460339       8.07179522      10.70386322
Si       1.04460339       2.00096855      47.23756278
Si       0.92530346       7.72042382      47.58611839
Si       0.92530346       2.35233995      10.35530761
Si       0.67192401       3.03541334      18.26684978
Si       0.67192401       7.03735043      39.67457623
Si       0.79122395       2.68404193      39.32602062
Si       0.79122395       7.38872183      18.61540539
Si       1.52775361       5.67655470      53.66694435
Si       1.52775361       4.39620907       4.27448166
Si       0.18877379       9.43259095      24.69623135
Si       0.18877379       0.64017281      33.24519466
20
Lattice="1.6665034315443115 -3.514566490736999e-16 -8.886187310704726e-15 -7.01385302573216e-16 8.900046684730803 9.194916496736673e-15 -2.3640461130768495e-13 5.2653206960810966e-14 62.04687291542066" Properties=species:S:1:pos:R:3 unique_starting_index=4 config_type=initial n_minim_iter=12 stress="0.16163954604710562 -2.206266889566363e-15 -2.2670695203811844e-15 -2.206266889566363e-15 -0.02794184319501068 5.407573658022893e-15 -2.2670695203811844e-15 5.407573658022893e-15 0.2807598202891045" pbc="T T T"
Si       1.76727256       4.38304932      38.10326819
Si       1.76727256       4.51699736      23.94360473
Si       0.22105180       4.29400672      33.32131401
Si       0.22105180       4.60603996      28.72555891
Si      -0.10076913      -0.06697402      54.96704119
Si      -0.10076913       8.96702071       7.07983173
Si       1.44545163       8.74403006      59.74899537
Si       1.44545163       0.15601662       2.29787755
Si       1.22920810       6.90288107      11.13658777
Si       1.22920810       1.99716562      50.91028514
Si       1.08240587       6.49368202      50.73365357
Si       1.08240587       2.40636467      11.31321935
Si       0.43729533       2.45285772      19.88684868
Si       0.43729533       6.44718896      42.16002423
Si       0.58409756       2.04365868      42.33665580
Si       0.58409756       6.85638801      19.71021711
Si       1.27108683       5.03593379      57.22392980
Si       1.27108683       3.86411290       4.82294311
Si       0.39541660       8.31413624      26.20049334
Si       0.39541660       0.58591045      35.84637957
20
Lattice="1.6635789535453618 -3.5967807525854345e-16 -9.385785319481187e-15 -7.468446031158601e-16 8.854136213698508 9.89034051811843e-15 -2.5288407625417273e-13 5.732224776746952e-14 61.654338367142905" Properties=species:S:1:pos:R:3 unique_starting_index=4 config_type=initial n_minim_iter=13 stress="0.10652974064248043 -3.884443985058287e-15 -3.001293505167148e-15 -3.884443985058287e-15 -0.16129452054758048 -1.0366993451656787e-16 -3.001293505167148e-15 -1.0366993451656787e-16 0.1957319234387443" pbc="T T T"
Si       1.78719901       4.34896253      37.86978381
Si       1.78719901       4.50517368      23.78455456
Si       0.20699724       4.26274210      33.08529929
Si       0.20699724       4.59139411      28.56903907
Si      -0.12362005      -0.07810558      54.61172374
Si      -0.12362005       8.93224179       7.04261463
Si       1.45658172       8.68981021      59.39620826
Si       1.45658172       0.16432600       2.25813011
Si       1.23572742       6.82583846      11.05944150
Si       1.23572742       2.02829775      50.59489686
Si       1.09021009       6.43133365      50.40200818
Si       1.09021009       2.42280256      11.25233019
Si       0.42785154       2.39877035      19.76772768
Si       0.42785154       6.45536586      41.88661069
Si       0.57336886       2.00426555      42.07949937
Si       0.57336886       6.84987067      19.57483900
Si       1.25983728       4.98864668      56.86480902
Si       1.25983728       3.86548954       4.78952935
Si       0.40374168       8.29255765      26.03763984
Si       0.40374168       0.56157857      35.61669853
20
Lattice="1.6647730925935758 -3.6819561795889104e-16 -9.859864037047186e-15 -7.705734058346425e-16 8.936643578826887 6.947089644797923e-15 -2.7068064342622814e-13 3.942347586841325e-14 60.997587654190276" Properties=species:S:1:pos:R:3 unique_starting_index=4 config_type=initial n_minim_iter=14 stress="0.14600909311750046 -4.5717193415338455e-15 -3.764887768373854e-15 -4.5717193415338455e-15 0.01568724858835628 -1.200643678391532e-15 -3.764887768373854e-15 -1.200643678391532e-15 0.14274873017112336" pbc="T T T"
Si       1.77220910       4.40697716      37.46774295
Si       1.77220910       4.52966642      23.52984471
Si       0.21733333       4.26578486      32.71181764
Si       0.21733333       4.67085872      28.28577001
Si      -0.10743600      -0.06134463      54.02863853
Si      -0.10743600       8.99798821       6.96894912
Si       1.44743977       8.73410665      58.78456384
Si       1.44743977       0.20253693       2.21302382
Si       1.22731658       6.87671200      10.96289129
Si       1.22731658       2.05993158      50.03469636
Si       1.08643277       6.50077912      49.87487062
Si       1.08643277       2.43586446      11.12271704
Si       0.43745651       2.40839021      19.53590253
Si       0.43745651       6.52825337      41.46168512
Si       0.57834033       2.03245733      41.62151086
Si       0.57834033       6.90418625      19.37607679
Si       1.26851408       5.01829930      56.28191399
Si       1.26851408       3.91834428       4.71567366
Si       0.39625901       8.38666607      25.78312016
Si       0.39625901       0.54997751      35.21446749
20
Lattice="1.6686618371454451 -3.826880805079547e-16 -1.0579946421560587e-14 -8.441472926834275e-16 8.914390274145408 5.3904547785647865e-15 -2.992517870617649e-13 3.0016590840551177e-14 59.84638028148397" Properties=species:S:1:pos:R:3 unique_starting_index=4 config_type=initial n_minim_iter=15 stress="0.20117941650295143 -3.607827679028047e-15 -9.585486444986535e-15 -3.607827679028047e-15 -0.07064425148534566 -4.574479562610141e-16 -9.585486444986535e-15 -4.574479562610141e-16 -0.03367788280553619" pbc="T T T"
Si       1.72066273       4.43811391      36.71934561
Si       1.72066273       4.47627637      23.12703467
Si       0.25086364       4.19386242      32.09365793
Si       0.25086364       4.72052785      27.75272235
Si      -0.05200089      -0.01908123      53.05022481
Si      -0.05200089       8.93347150       6.79615547
Si       1.41779820       8.65105756      57.67591249
Si       1.41779820       0.26333271       2.17046779
Si       1.21104307       6.83547294      10.83016881
Si       1.21104307       2.07891733      49.01621147
Si       1.06217856       6.52049908      48.97544608
Si       1.06217856       2.39389120      10.87093420
Si       0.45761877       2.37827780      19.09302133
Si       0.45761877       6.53611247      40.75335895
Si       0.60648328       2.06330394      40.79412434
Si       0.60648328       6.85108634      19.05225594
Si       1.29474618       4.93947044      55.24265268
Si       1.29474618       3.97491984       4.60372761
Si       0.37391566       8.43211497      25.31946253
Si       0.37391566       0.48227530      34.52691775
20
Lattice="1.6673389526120483 -3.9234798390047983e-16 -1.1010627994753134e-14 -8.799247751642534e-16 8.953223122667142 2.517022974443579e-15 -3.143093687623665e-13 1.1876790441549333e-14 59.43606917852043" Properties=species:S:1:pos:R:3 unique_starting_index=4 config_type=initial n_minim_iter=16 stress="0.18771375578476227 -2.864445631420532e-15 -9.493387454579956e-15 -2.864445631420532e-15 0.02293636485895475 -8.49260831076983e-15 -9.493387454579956e-15 -8.49260831076983e-15 -0.03913777700273042" pbc="T T T"
Si       1.70749739       4.45606177      36.44513246
Si       1.70749739       4.49716135      22.99093672
Si       0.25645437       4.19409602      31.90165691
Si       0.25645437       4.75912710      27.53441227
Si      -0.04015843      -0.02054979      52.70897131
Si      -0.04015843       8.97377291       6.72709787
Si       1.41088458       8.67070758      57.25244686
Si       1.41088458       0.28251554       2.18362232
Si       1.21251946       6.83303971      10.76721489
Si       1.21251946       2.12018342      48.66885429
Si       1.05231168       6.55947129      48.63932731
Si       1.05231168       2.39375183      10.79674187
Si       0.45481950       2.35642815      18.95081970
Si       0.45481950       6.59679498      40.48524948
Si       0.61502727       2.08285973      40.51477646
Si       0.61502727       6.87036339      18.92129272
Si       1.29429643       4.91764048      54.86825544
Si       1.29429643       4.03558264       4.56781374
Si       0.37304252       8.51219421      25.15022085
Si       0.37304252       0.44102892      34.28584833
20
Lattice="1.6631209399222509 -4.097042489467876e-16 -1.1793222428396937e-14 -9.656082946297354e-16 8.916287615946807 -1.2350521697993852e-15 -3.364743442961247e-13 -1.2544295956195462e-14 59.536768052857006" Properties=species:S:1:pos:R:3 unique_starting_index=4 config_type=initial n_minim_iter=17 stress="0.11797020401743158 -2.4252652048030216e-15 -1.3897300299616111e-14 -2.4252652048030216e-15 0.008955979729235921 -3.2549810515981234e-15 -1.3897300299616111e-14 -3.2549810515981234e-15 0.004570908823931315" pbc="T T T"
Si       1.69387996       4.41118361      36.50215286
Si       1.69387996       4.50510401      23.03461520
Si       0.24993596       4.17424265      31.97160069
Si       0.24993596       4.74204497      27.56516737
Si      -0.03075902      -0.04696020      52.80299922
Si      -0.03075902       8.96324781       6.73376883
Si       1.41318498       8.63238645      57.33355139
Si       1.41318498       0.28390116       2.20321666
Si       1.21230107       6.78306198      10.76923459
Si       1.21230107       2.13322564      48.76753346
Si       1.04584817       6.55028161      48.71609149
Si       1.04584817       2.36600601      10.82067656
Si       0.45081987       2.32491817      18.99914944
Si       0.45081987       6.59136944      40.53761862
Si       0.61727277       2.09213780      40.58906059
Si       0.61727277       6.82414981      18.94770747
Si       1.27680704       4.83102055      54.92927707
Si       1.27680704       4.08526706       4.60749098
Si       0.38631390       8.54341087      25.16089304
Si       0.38631390       0.37287675      34.37587501
20
Lattice="1.659628956560668 -4.2784925894323525e-16 -1.2650238342353926e-14 -1.052990309202838e-15 8.890645971821353 -4.152622965725612e-15 -3.6251288439877724e-13 -3.155921330222594e-14 59.3899072644228" Properties=species:S:1:pos:R:3 unique_starting_index=4 config_type=initial n_minim_iter=18 stress="0.04173552051365697 -1.9361252887220463e-15 -9.424199432461598e-15 -1.9361252887220463e-15 -0.00523016526462217 -9.790849516584201e-15 -9.424199432461598e-15 -9.790849516584201e-15 -0.05284250259384753" pbc="T T T"
Si       1.65410419       4.37579823      36.38863898
Si       1.65410419       4.51484774      23.00126829
Si       0.24788401       4.12025138      31.88491929
Si       0.24788401       4.77039459      27.50498797
Si       0.00552477      -0.06952475      52.69622192
Si       0.00552477       8.96017072       6.69368535
Si       1.41174495       8.56557437      57.19994160
Si       1.41174495       0.32507160       2.18996566
Si       1.19789801       6.74891539      10.73441864
Si       1.19789801       2.14173058      48.65548862
Si       1.03612065       6.56833929      48.59103628
Si       1.03612065       2.32230668      10.79887099
Si       0.46173094       2.30359241      18.96053499
Si       0.46173094       6.58705356      40.42937227
Si       0.62350830       2.12301630      40.49382462
Si       0.62350830       6.76762967      18.89608264
Si       1.25576904       4.75021961      54.74204429
Si       1.25576904       4.14042636       4.64786297
Si       0.40385992       8.58574934      25.04709066
Si       0.40385992       0.30489663      34.34281660
20
Lattice="1.6459844534579282 -5.147066322036744e-16 -1.7771463677894954e-14 -1.4898229646435594e-15 8.706093261089347 -6.42717257359289e-15 -5.146788503212352e-13 -4.5741726553206615e-14 59.233739167100694" Properties=species:S:1:pos:R:3 unique_starting_index=4 config_type=initial n_minim_iter=19 stress="-0.2409555120851039 -2.151974569734829e-15 -5.584304032992677e-16 -2.151974569734829e-15 -0.14024705108335703 2.0927243126333957e-16 -5.584304032992677e-16 2.0927243126333957e-16 -0.12623989765293187" pbc="T T T"
Si       1.48222985       4.29682536      36.20475035
Si       1.48222985       4.40926790      23.02898882
Si       0.21881961       3.78396695      31.76206854
Si       0.21881961       4.92212631      27.47167062
Si       0.16375460      -0.05622127      52.64585840
Si       0.16375460       8.76231453       6.58788077
Si       1.42716484       8.13701358      57.08854021
Si       1.42716484       0.56907968       2.14519896
Si       1.09922613       6.52466706      10.64641681
Si       1.09922613       2.18142621      48.58732236
Si       1.01154288       6.57706621      48.42269533
Si       1.01154288       2.12902706      10.81104384
Si       0.54675833       2.17162042      18.97045278
Si       0.54675833       6.53447284      40.26328639
Si       0.63444158       2.22401957      40.42791342
Si       0.63444158       6.48207369      18.80582575
Si       1.16502599       4.31660999      54.38280877
Si       1.16502599       4.38948328       4.85093040
Si       0.48095846       8.74252991      24.76593918
Si       0.48095846      -0.03643665      34.46779999
20
Lattice="1.6447051795948513 -5.262677244755515e-16 -1.860545040235174e-14 -1.5461721494571612e-15 8.69131269464547 -4.975740473835919e-15 -5.396347950273987e-13 -3.618623205838644e-14 59.211780999104036" Properties=species:S:1:pos:R:3 unique_starting_index=4 config_type=initial n_minim_iter=20 stress="-0.27274679486126446 -2.0805905224766995e-15 -4.2118119831500953e-16 -2.0805905224766995e-15 -0.19731438860121497 -3.34531463152476e-15 -4.2118119831500953e-16 -3.34531463152476e-15 -0.13537282758418803" pbc="T T T"
Si       1.46300147       4.29294945      36.18032444
Si       1.46300147       4.39836325      23.03145656
Si       0.21509604       3.74548906      31.74278155
Si       0.21509604       4.94582364      27.46899945
Si       0.18170371      -0.05270690      52.63734706
Si       0.18170371       8.74401959       6.57443394
Si       1.42960914       8.09114541      57.07488995
Si       1.42960914       0.60016729       2.13689105
Si       1.08717961       6.50163903      10.63675368
Si       1.08717961       2.18967366      48.57502731
Si       1.00964445       6.58128477      48.39991901
Si       1.00964445       2.11002793      10.81186199
Si       0.55752557       2.15598268      18.96913682
Si       0.55752557       6.53533001      40.24264418
Si       0.63506073       2.23562842      40.41775249
Si       0.63506073       6.45568428      18.79402851
Si       1.15479509       4.27536998      54.33874223
Si       1.15479509       4.41594272       4.87303877
Si       0.48991009       8.76159907      24.73285173
Si       0.48991009      -0.07028637      34.47892927
20
Lattice="1.6430924419374109 -5.558188303552865e-16 -2.07512631097509e-14 -1.6670091023294798e-15 8.740787935560112 -2.0606319289865378e-14 -6.019168764557568e-13 -1.3844509615832563e-13 59.40023234465096" Properties=species:S:1:pos:R:3 unique_starting_index=4 config_type=initial n_minim_iter=21 stress="-0.2745995492729735 -2.3586503105609453e-15 -2.535119623136571e-15 -2.3586503105609453e-15 0.00937748007928463 -1.0785970963324385e-14 -2.535119623136571e-15 -1.0785970963324385e-14 0.045240428389796646" pbc="T T T"
Si       1.43926864       4.32869043      36.28489465
Si       1.43926864       4.41209750      23.11533769
Si       0.18608642       3.65643447      31.78680968
Si       0.18608642       5.08435346      27.61342266
Si       0.20382381      -0.04170353      52.81545387
Si       0.20382381       8.78249147       6.58477848
Si       1.45700602       8.02682844      57.31353883
Si       1.45700602       0.71395950       2.08669351
Si       1.05094181       6.49717933      10.64068561
Si       1.05094181       2.24360860      48.75954673
Si       1.02208634       6.63317494      48.52283023
Si       1.02208634       2.10761299      10.87740212
Si       0.59215063       2.12678536      19.05943056
Si       0.59215063       6.61400257      40.34080178
Si       0.62100611       2.26278098      40.57751829
Si       0.62100611       6.47800696      18.82271405
Si       1.12430561       4.29443204      54.46646085
Si       1.12430561       4.44635589       4.93377149
Si       0.51878684       8.81674986      24.76634468
Si       0.51878684      -0.07596193      34.63388767
