1
Lattice="2.545504562030432 1.3688087695199924e-17 -1.456687076289807e-51 1.272752281015216 2.2044716161675355 -8.883892565637036e-51 4.118883534109765e-51 1.6856788726852339e-50 2.3881472261292496" Properties=species:S:1:pos:R:3 cutoff=-1.0 nneightol=1.2 n_minim_iter=1 energy=-162.75434623558374 free_energy=-162.75434623558374 pbc="T T T"
Si       0.00000000       0.00000000       0.00000000
