1
Lattice="2.756094398976473 1.590833842687678e-17 0.0 1.3780471994882364 2.3868477647416295 0.0 0.0 0.0 2.5609748382048285" Properties=species:S:1:pos:R:3 cutoff=-1.0 nneightol=1.2 n_minim_iter=1 energy=-162.7838814427321 free_energy=-162.7838814427321 pbc="T T T"
Si       0.00000000       0.00000000       0.00000000
