2
Lattice="4.643899090409272 1.8977834841357193e-19 6.900961034342878e-17 1.897783484127542e-19 4.643899090409272 -2.9524069207306524e-16 2.321949545204636 2.321949545204636 1.2802903086605653" Properties=species:S:1:pos:R:3 cutoff=-1.0 nneightol=1.2 n_minim_iter=1 energy=-325.58312314912416 free_energy=-325.58312314912416 pbc="T T T"
Si      -0.00000000      -1.16097477      -0.32007258
Si      -0.00000000       1.16097477       0.32007258
