2
Lattice="2.745688671424545 9.664691703397669e-17 2.745688671424545 2.745688671424545 2.745688671424545 1.729706019076951e-16 1.0770127163423167e-16 2.745688671424545 2.745688671424545" Properties=species:S:1:pos:R:3 n_minim_iter=1 energy=-326.3518439357305 free_energy=-326.3518439357305 pbc="T T T"
Si       0.00000000       0.00000000       0.00000000
Si       1.37284434       1.37284434       1.37284434
