2
Lattice="2.7226145664754613 9.583471966802756e-17 2.7226145664754613 2.7226145664754613 2.7226145664754613 1.7151699871405493e-16 1.0679617614008422e-16 2.7226145664754613 2.7226145664754613" Properties=species:S:1:pos:R:3 n_minim_iter=1 energy=-326.35403309781555 free_energy=-326.35403309781555 pbc="T T T"
Si       0.00000000       0.00000000       0.00000000
Si       1.36130728       1.36130728       1.36130728
