14
Lattice="5.4669756957303095 0.36580997093216516 -2.0996109804059464e-14 0.22793459634830437 2.568424668821017 -4.52078716078652e-14 4.432564365901523e-14 2.847378335073762e-13 16.39807492163691" Properties=species:S:1:pos:R:3 unique_starting_index=0 config_type=initial n_minim_iter=1 energy=-2277.2850638283658 free_energy=-2277.2850638283658 pbc="T T T"
Si       1.62796752       0.77114696      12.65405294
Si       1.21948762       0.69597036       4.45501548
Si       4.06694277       2.16308768       3.74402198
Si       4.47542267       2.23826428      11.94305944
Si       4.64564891       0.98970064       5.85068581
Si       3.66878193       0.84322665      14.04972327
Si       1.04926138       1.94453400      10.54738911
Si       2.02612836       2.09100799       2.34835165
Si       2.31198486       0.80067528       6.55162446
Si       0.53547028       0.66644204      14.75066193
Si       3.38292543       2.13355936       9.84645046
Si       5.15944001       2.26779260       1.64741300
Si       2.73348785       0.18290499      -0.00000000
Si       0.11396730       1.28421233       8.19903746
14
Lattice="5.466008602671462 0.37250950158848695 -2.3503638544160413e-14 0.23210457765391268 2.5525410651199354 -4.516464265747191e-14 3.6749620013476256e-14 2.810531430992693e-13 16.230809064378107" Properties=species:S:1:pos:R:3 unique_starting_index=0 config_type=initial n_minim_iter=2 stress="-0.006003475763608924 -0.001221107874067778 -3.1690728261513266e-15 -0.001221107874067778 -0.009024688691632534 -1.5786166008225786e-15 -3.1690728261513266e-15 -1.5786166008225786e-15 -0.01051377277926981" pbc="T T T"
Si       1.63050468       0.77017817      12.52559119
Si       1.21855191       0.69234711       4.41018666
Si       4.06760850       2.15487239       3.70521787
Si       4.47956127       2.23270346      11.82062240
Si       4.64479606       0.99310710       5.80128470
Si       3.67026913       0.84192768      13.91668923
Si       1.05331712       1.93194347      10.42952436
Si       2.02784405       2.08312288       2.31411983
Si       2.30912975       0.80164248       6.49411444
Si       0.53992684       0.66088281      14.60951897
Si       3.38898343       2.12340809       9.73669462
Si       5.15818634       2.26416776       1.62129009
Si       2.73300430       0.18625475      -0.00000000
Si       0.11605229       1.27627053       8.11540453
14
Lattice="5.592282052934697 0.4542321508238696 -2.8754151059298934e-14 0.2762561303101897 2.545174100570178 -4.542311831685098e-14 2.5241795525213812e-14 2.738349328669059e-13 15.862239421408596" Properties=species:S:1:pos:R:3 unique_starting_index=0 config_type=initial n_minim_iter=3 stress="0.010449806777011864 0.0008269407875781167 2.993576031709554e-15 0.0008269407875781167 -0.01426370075503228 5.8715565686580326e-15 2.993576031709554e-15 5.8715565686580326e-15 -0.01469051343972017" pbc="T T T"
Si       1.69233026       0.80106476      12.24543238
Si       1.24193883       0.69863836       4.31431267
Si       4.17620792       2.19834149       3.61680704
Si       4.62659935       2.30076789      11.54792675
Si       4.75336899       1.07404401       5.74510498
Si       3.77318215       0.87989126      13.67622469
Si       1.11516919       1.92536224      10.11713444
Si       2.09535603       2.11951499       2.18601473
Si       2.34632427       0.84953691       6.41582835
Si       0.58794482       0.65016621      14.34694806
Si       3.52221392       2.14986934       9.44641107
Si       5.28059336       2.34924004       1.51529136
Si       2.79614103       0.22711608      -0.00000000
Si       0.13812807       1.27258705       7.93111971
14
Lattice="5.511055677855419 0.5175804118017757 -3.394722919615334e-14 0.3008802416560757 2.5713393713656267 -4.630659559413393e-14 1.1885015339499473e-14 2.690424521162336e-13 15.664574950552772" Properties=species:S:1:pos:R:3 unique_starting_index=0 config_type=initial n_minim_iter=4 stress="-0.004002287283747343 0.0020250909893645944 -9.342378239562181e-15 0.0020250909893645944 -0.008963363194494811 -3.007928210940557e-15 -9.342378239562181e-15 -3.007928210940557e-15 -0.026763256113963685" pbc="T T T"
Si       1.69081173       0.83629706      12.09820146
Si       1.21515623       0.70816283       4.26591399
Si       4.12112419       2.25262272       3.56637349
Si       4.59677969       2.38075695      11.39866096
Si       4.68130833       1.14767316       5.74787409
Si       3.73571531       0.91436714      13.58016157
Si       1.13062759       1.94124662       9.91670086
Si       2.07622061       2.17455264       2.08441338
Si       2.29547226       0.89876864       6.40669026
Si       0.61049570       0.64569125      14.23897773
Si       3.51646366       2.19015115       9.25788469
Si       5.20144022       2.44322853       1.42559722
Si       2.75552784       0.25879021      -0.00000000
Si       0.15044012       1.28566969       7.83228748
14
Lattice="5.474422548605464 0.5052553461566446 -3.39631240900896e-14 0.2952796881130495 2.545676128644053 -4.588948826529854e-14 1.2398368659108835e-14 2.7401496249060344e-13 15.954440246762287" Properties=species:S:1:pos:R:3 unique_starting_index=0 config_type=initial n_minim_iter=5 stress="-0.0007773168222970902 0.0016645697826777064 -4.1801973067463164e-15 0.0016645697826777064 -0.010026818090549769 4.223604330216515e-15 -4.1801973067463164e-15 4.223604330216515e-15 -0.009017630501280339" pbc="T T T"
Si       1.68626961       0.83139522      12.32540269
Si       1.19858151       0.69407051       4.34818257
Si       4.08343262       2.21953625       3.62903755
Si       4.57112073       2.35686096      11.60625768
Si       4.64071674       1.13526165       5.88836751
Si       3.71855693       0.89545944      13.86558763
Si       1.12898550       1.91566983      10.06607274
Si       2.05114531       2.15547204       2.08885261
Si       2.26778867       0.89519523       6.56149131
Si       0.61706245       0.63027051      14.53871143
Si       3.50191357       2.15573624       9.39294894
Si       5.15263978       2.42066097       1.41572882
Si       2.73721127       0.25262767      -0.00000000
Si       0.14763984       1.27283806       7.97722012
14
Lattice="5.444220777566137 0.4700826150835792 -3.337884631388439e-14 0.275788252953255 2.5711993904102197 -4.631514973783989e-14 1.2701602910421238e-14 2.757272749255047e-13 16.052939755618926" Properties=species:S:1:pos:R:3 unique_starting_index=0 config_type=initial n_minim_iter=6 stress="0.0005561442472741608 0.00043719042837276695 5.966749495366529e-16 0.00043719042837276695 0.003925898871760952 -1.7074927097480147e-15 5.966749495366529e-16 -1.7074927097480147e-15 0.0011592491412429067" pbc="T T T"
Si       1.67481219       0.83183009      12.40587700
Si       1.18519232       0.68881092       4.37940712
Si       4.04519684       2.20945192       3.64706276
Si       4.53481671       2.35247109      11.67353264
Si       4.60293268       1.11406875       5.93494373
Si       3.70129261       0.87665487      13.96141361
Si       1.11707635       1.92721325      10.11799602
Si       2.01871642       2.16462714       2.09152614
Si       2.24436074       0.89191597       6.61662108
Si       0.61564378       0.62872503      14.64309096
Si       3.47564830       2.14936603       9.43631868
Si       5.10436525       2.41255697       1.40984880
Si       2.72211039       0.23504131      -0.00000000
Si       0.13789413       1.28559970       8.02646988
14
Lattice="5.419196024935122 0.4200284710479244 -3.261589648816065e-14 0.2529623158419302 2.5452967017449994 -4.5861324976157513e-14 1.3054399114721339e-14 2.784332133815082e-13 16.209663500183584" Properties=species:S:1:pos:R:3 unique_starting_index=0 config_type=initial n_minim_iter=7 stress="-0.0031516998257811765 -0.0015228995049148323 -6.6176005423890944e-15 -0.0015228995049148323 -0.0036237900725921584 3.814083809148904e-15 -6.6176005423890944e-15 3.814083809148904e-15 0.006122713824277697" pbc="T T T"
Si       1.66550534       0.81902810      12.54059385
Si       1.17057383       0.66363449       4.43576210
Si       4.00665300       2.14629707       3.66906965
Si       4.50158451       2.30169069      11.77390140
Si       4.55959348       1.06307943       5.99412153
Si       3.69568171       0.83961163      14.09895328
Si       1.11256486       1.90224575      10.21554197
Si       1.97647663       2.12571354       2.11071022
Si       2.21783558       0.87065315       6.69662926
Si       0.61824359       0.61200944      14.80146101
Si       3.45432276       2.09467203       9.51303424
Si       5.05391475       2.35331573       1.40820249
Si       2.70959801       0.21001424      -0.00000000
Si       0.12648116       1.27264835       8.10483175
14
Lattice="5.518731707867215 0.38420595508379524 -3.2854353993043085e-14 0.2400090852629407 2.549384039120133 -4.5992930895923174e-14 9.841717799083098e-15 2.7465764843405064e-13 16.00977993386798" Properties=species:S:1:pos:R:3 unique_starting_index=0 config_type=initial n_minim_iter=8 stress="0.008614806551335409 -0.0032664034542451317 -6.805457915006076e-15 -0.0032664034542451317 0.0011768114748790135 5.1221716160550224e-15 -6.805457915006076e-15 5.1221716160550224e-15 0.0070012121347423845" pbc="T T T"
Si       1.70381513       0.83822699      12.43121310
Si       1.17555527       0.62856801       4.42632313
Si       4.05492567       2.09536301       3.57856684
Si       4.58318552       2.30502198      11.58345680
Si       4.58919801       1.02746138       5.91211002
Si       3.80890409       0.82353957      13.91699999
Si       1.16954278       1.90612861      10.09766991
Si       1.94983670       2.11005042       2.09277995
Si       2.22238311       0.87460915       6.65160486
Si       0.65698729       0.59218585      14.65649483
Si       3.53635769       2.05898084       9.35817507
Si       5.10175350       2.34140415       1.35328511
Si       2.75936585       0.19210298      -0.00000000
Si       0.12000454       1.27469202       8.00488997
14
Lattice="5.569130339233844 0.4216882863526959 -3.487698081357413e-14 0.2590116488548777 2.5599676288715303 -4.632909371553089e-14 4.498763473253188e-15 2.6920905779865203e-13 15.731814694501999" Properties=species:S:1:pos:R:3 unique_starting_index=0 config_type=initial n_minim_iter=9 stress="0.004652924191229275 -0.0014597517989363847 5.8731832356234414e-15 -0.0014597517989363847 0.002580661400414744 -9.450766908622535e-15 5.8731832356234414e-15 -9.450766908622535e-15 0.00023842173057876095" pbc="T T T"
Si       1.74170207       0.89250249      12.27822856
Si       1.17236892       0.59832546       4.41232122
Si       4.08643992       2.08915342       3.45358613
Si       4.65577306       2.38333045      11.31949348
Si       4.56587705       1.04662648       5.77219566
Si       3.91732428       0.86588976      13.63810301
Si       1.26226493       1.93502943       9.95961903
Si       1.91081771       2.11576615       2.09371169
Si       2.21465249       0.91122824       6.56669596
Si       0.69941851       0.57959971      14.43260331
Si       3.61348950       2.07042767       9.16511874
Si       5.12872348       2.40205620       1.29921139
Si       2.78456517       0.21084414      -0.00000000
Si       0.12950582       1.27998381       7.86590735
14
Lattice="5.570338198838871 0.49312200385864885 -3.675250306145975e-14 0.2926445933076809 2.5596312392438256 -4.647998341962387e-14 2.050558402049914e-15 2.6658929593034674e-13 15.625776081421915" Properties=species:S:1:pos:R:3 unique_starting_index=0 config_type=initial n_minim_iter=10 stress="-0.0046390790898893615 0.0033383332188927405 -1.7347742115531997e-15 0.0033383332188927405 -0.00126065626662625 -1.4334792708641137e-14 -1.7347742115531997e-15 -1.4334792708641137e-14 -0.001958178186990286" pbc="T T T"
Si       1.76980886       0.93851883      12.22390113
Si       1.16168254       0.58785779       4.41101309
Si       4.09317394       2.11423442       3.40187495
Si       4.70130025       2.46489545      11.21476299
Si       4.54068973       1.09309269       5.68606835
Si       3.96113987       0.92640593      13.49895639
Si       1.32229306       1.95966055       9.93970773
Si       1.90184293       2.12634731       2.12681969
Si       2.23014229       0.94370987       6.52108240
Si       0.70134910       0.58266675      14.33397044
Si       3.63284050       2.10904337       9.10469368
Si       5.16163369       2.47008649       1.29180564
Si       2.78516910       0.24656100      -0.00000000
Si       0.14632230       1.27981562       7.81288804
14
Lattice="5.6361929022024615 0.4144422556718837 -3.5449861466384226e-14 0.2591247775543649 2.5491875028627526 -4.6392899419294604e-14 8.05634660842516e-16 2.6176592305674905e-13 15.38995707561718" Properties=species:S:1:pos:R:3 unique_starting_index=0 config_type=initial n_minim_iter=11 stress="-0.006639984831173798 -0.0013444177215975622 -7.035714765635862e-15 -0.0013444177215975622 -0.0059887280375665285 9.317971536211517e-15 -7.035714765635862e-15 9.317971536211517e-15 0.0010991449490382712" pbc="T T T"
Si       1.84581472       0.97682442      12.08817600
Si       1.10184412       0.50499046       4.39319746
Si       4.04950296       1.98680534       3.30178108
Si       4.79347356       2.45863930      10.99675961
Si       4.50913519       1.01642104       5.55138230
Si       4.07471655       0.87983609      13.24636083
Si       1.38618249       1.94720872       9.83857478
Si       1.82060113       2.08379367       2.14359624
Si       2.26451353       0.93087908       6.47742817
Si       0.68314531       0.55093580      14.17240671
Si       3.63080415       2.03275068       8.91252890
Si       5.21217237       2.41269396       1.21755037
Si       2.81809645       0.20722113      -0.00000000
Si       0.12956239       1.27459375       7.69497854
14
Lattice="5.735238733250862 0.42446263591885824 -3.502914801321062e-14 0.2670181238504672 2.5632927252145583 -4.6619385537378686e-14 8.204817404753697e-16 2.555420092187921e-13 15.042986778753706" Properties=species:S:1:pos:R:3 unique_starting_index=0 config_type=initial n_minim_iter=12 stress="-0.00023655310899558914 -0.0001075795509139703 -3.642672665662468e-16 -0.0001075795509139703 -0.003516036492996851 1.9674226845270727e-16 -3.642672665662468e-16 1.9674226845270727e-16 -0.001727454216479526" pbc="T T T"
Si       1.94193440       1.03252346      11.83906386
Si       1.05919402       0.46135422       4.31757047
Si       4.06032245       1.95523190       3.20392292
Si       4.94306283       2.52640114      10.72541631
Si       4.55157028       1.02439913       5.39729679
Si       4.18479689       0.89394119      12.91879018
Si       1.45068658       1.96335623       9.64568999
Si       1.81745997       2.09381417       2.12419660
Si       2.33774027       0.95054602       6.37428227
Si       0.66338815       0.54333166      13.89577566
Si       3.66451658       2.03720934       8.66870451
Si       5.33886870       2.44442370       1.14721112
Si       2.86761937       0.21223132      -0.00000000
Si       0.13350906       1.28164636       7.52149339
14
Lattice="5.717600897538322 0.42658567010093895 -3.536894491653586e-14 0.2667576673940184 2.5711013956899333 -4.682413413489459e-14 1.0819125739269517e-16 2.557396092609893e-13 15.07550005480651" Properties=species:S:1:pos:R:3 unique_starting_index=0 config_type=initial n_minim_iter=13 stress="-0.0015300980178073538 -0.00026117891774598087 -4.29847105676713e-15 -0.00026117891774598087 0.0006093387987404575 -5.022803062200016e-15 -4.29847105676713e-15 -5.022803062200016e-15 0.0011294769177320769" pbc="T T T"
Si       1.93881664       1.02690711      11.84940797
Si       1.05336265       0.47193642       4.31165794
Si       4.04554193       1.97077996       3.22609209
Si       4.93099592       2.52575064      10.76384212
Si       4.56517094       1.03566316       5.43596061
Si       4.14460924       0.88976605      12.97371064
Si       1.41918762       1.96202391       9.63953944
Si       1.83974933       2.10792102       2.10178941
Si       2.33710793       0.94975323       6.39550049
Si       0.65507136       0.54909030      13.93325052
Si       3.64725064       2.04793384       8.67999956
Si       5.32928721       2.44859676       1.14224953
Si       2.85880045       0.21329284      -0.00000000
Si       0.13337883       1.28555070       7.53775003
14
Lattice="5.744749213382808 0.4326907475743812 -3.537137029565341e-14 0.27070014926372105 2.5719625516558997 -4.688106639280949e-14 4.487940393393337e-17 2.54193259310734e-13 15.005469811971283" Properties=species:S:1:pos:R:3 unique_starting_index=0 config_type=initial n_minim_iter=14 stress="0.0014397003566973222 0.0001729464127337923 -6.6203792225450805e-15 0.0001729464127337923 0.0009915153069133883 1.2361158083494581e-14 -6.6203792225450805e-15 1.2361158083494581e-14 0.0004905804410855693" pbc="T T T"
Si       1.96176935       1.03848120      11.80459247
Si       1.04595533       0.46384545       4.30185756
Si       4.05368001       1.96617210       3.20087734
Si       4.96949403       2.54080785      10.70361225
Si       4.58909106       1.04218197       5.41941684
Si       4.16338283       0.89283542      12.92215174
Si       1.42635830       1.96247133       9.58605298
Si       1.85206653       2.11181788       2.08331807
Si       2.34638407       0.95384571       6.38394964
Si       0.66134061       0.54848094      13.88668454
Si       3.66906529       2.05080759       8.62152018
Si       5.35410875       2.45617236       1.11878527
Si       2.87237461       0.21634537      -0.00000000
Si       0.13535007       1.28598128       7.50273491
14
Lattice="5.779387951870011 0.4239303929120394 -3.531258667994838e-14 0.26795947300271417 2.5729966031896483 -4.6975600299345674e-14 -6.873628938984525e-16 2.5198193052892904e-13 14.908047493052763" Properties=species:S:1:pos:R:3 unique_starting_index=0 config_type=initial n_minim_iter=15 stress="0.0015820967172371096 -0.0002123811937938514 -4.830604147160523e-15 -0.0002123811937938514 0.0006269832740404096 -7.131285350815603e-15 -4.830604147160523e-15 -7.131285350815603e-15 -0.0005159719080130927" pbc="T T T"
Si       1.99730865       1.05691785      11.75783722
Si       1.02636506       0.44154565       4.30381348
Si       4.05003877       1.94000915       3.15021027
Si       5.02098236       2.55538135      10.60423402
Si       4.63547027       1.03464142       5.37615126
Si       4.16759139       0.88775247      12.83017500
Si       1.41187715       1.96228558       9.53189624
Si       1.87975603       2.10917452       2.07787249
Si       2.36460861       0.94110717       6.35670581
Si       0.65906510       0.55735633      13.81072956
Si       3.68273881       2.05581983       8.55134168
Si       5.38828232       2.43957067       1.09731793
Si       2.88969398       0.21196520      -0.00000000
Si       0.13397974       1.28649830       7.45402375
14
Lattice="5.778285555949413 0.4253692872281934 -3.537510793014635e-14 0.268798999493415 2.5698658699583774 -4.6988528303376704e-14 -6.048846050858793e-16 2.521172779112315e-13 14.938752875112009" Properties=species:S:1:pos:R:3 unique_starting_index=0 config_type=initial n_minim_iter=16 stress="0.0014379950795777093 -7.838414550269708e-05 -9.128973863134802e-15 -7.838414550269708e-05 -0.0005239082129201089 -1.877302864106112e-15 -9.128973863134802e-15 -1.877302864106112e-15 0.0003799593538855967" pbc="T T T"
Si       1.98788579       1.06685197      11.80985703
Si       1.03565648       0.43076561       4.34048059
Si       4.05919876       1.92838319       3.12889584
Si       5.01142807       2.56446955      10.59827228
Si       4.62138068       1.02774657       5.36192433
Si       4.18044716       0.89524029      12.83130077
Si       1.42570388       1.96748859       9.57682854
Si       1.86663740       2.09999486       2.10745211
Si       2.35247552       0.93535083       6.35866682
Si       0.67106676       0.56226674      13.82804326
Si       3.69460903       2.05988432       8.58008606
Si       5.37601780       2.43296841       1.11070962
Si       2.88914278       0.21268464      -0.00000000
Si       0.13439950       1.28493294       7.46937644
14
Lattice="5.765540191433825 0.43087266322965245 -3.472028613349001e-14 0.2703639896009453 2.5771760432678428 -4.708993683806174e-14 1.426120790738752e-15 2.513625480158936e-13 14.899459264102392" Properties=species:S:1:pos:R:3 unique_starting_index=0 config_type=initial n_minim_iter=17 stress="-0.0038964798142589853 0.0004041320052571052 7.47856414566767e-15 0.0004041320052571052 8.67667903743587e-06 3.1662338097795827e-15 7.47856414566767e-15 3.1662338097795827e-15 -0.0017151443775222965" pbc="T T T"
Si       1.99012098       1.08505170      11.78503553
Si       1.02783111       0.41897265       4.33530590
Si       4.04578320       1.92299701       3.11442374
Si       5.00807307       2.58907605      10.56415337
Si       4.61461986       1.03497082       5.33570124
Si       4.16887242       0.89992620      12.78543088
Si       1.42128432       1.97307789       9.56375802
Si       1.86703176       2.10812251       2.11402839
Si       2.36827964       0.92871335       6.34030484
Si       0.64967245       0.57531100      13.79003447
Si       3.66762454       2.07933535       8.55915442
Si       5.38623173       2.43273771       1.10942479
Si       2.88277010       0.21543633      -0.00000000
Si       0.13518199       1.28858802       7.44972963
14
Lattice="5.768953619802069 0.41648211404448665 -3.506202902999387e-14 0.2635181202682936 2.580574524033129 -4.728095479790025e-14 9.359773526344536e-17 2.5191342416616054e-13 14.970041770037277" Properties=species:S:1:pos:R:3 unique_starting_index=0 config_type=initial n_minim_iter=18 stress="0.0038670922728103706 -0.0020912892995894835 -3.5220917646919767e-15 -0.0020912892995894835 0.002582267150144421 1.4893610181658798e-14 -3.5220917646919767e-15 1.4893610181658798e-14 0.0040135617759150645" pbc="T T T"
Si       1.94926290       1.14318342      11.87799963
Si       1.06697297       0.35534490       4.39297875
Si       4.08320884       1.85387322       3.09204214
Si       4.96549877       2.64171174      10.57706302
Si       4.63203584       1.04659612       5.38313582
Si       4.15315365       0.86841431      12.86815671
Si       1.40043590       1.95046052       9.58690595
Si       1.87931809       2.12864232       2.10188506
Si       2.42074498       0.85234585       6.39106343
Si       0.59549089       0.64618247      13.87608431
Si       3.61172676       2.14471079       8.57897834
Si       5.43698085       2.35087417       1.09395746
Si       2.88447681       0.20824106      -0.00000000
Si       0.13175906       1.29028726       7.48502089
14
Lattice="5.763574298757138 0.44009784583661204 -3.526177495901533e-14 0.2743361598272061 2.581359454502338 -4.731358496068057e-14 6.026014957326203e-16 2.514175700191807e-13 14.95228274647067" Properties=species:S:1:pos:R:3 unique_starting_index=0 config_type=initial n_minim_iter=19 stress="0.0026232209084003943 -0.0007544437336980366 -7.722409798314323e-15 -0.0007544437336980366 0.000230478139218208 2.1688459366454188e-15 -7.722409798314323e-15 2.1688459366454188e-15 0.001979527255229492" pbc="T T T"
Si       1.94141229       1.18151096      11.88524730
Si       1.07754294       0.32921769       4.40910593
Si       4.09649817       1.83994634       3.06703544
Si       4.96036752       2.69223961      10.54317682
Si       4.64245759       1.07549569       5.38675535
Si       4.14007194       0.87533080      12.86289672
Si       1.39545287       1.94596161       9.56552740
Si       1.89783852       2.14612650       2.08938603
Si       2.43933897       0.83102667       6.39977923
Si       0.57961626       0.67970198      13.87592060
Si       3.59857149       2.19043063       8.55250352
Si       5.45829420       2.34175532       1.07636215
Si       2.88178715       0.22004892      -0.00000000
Si       0.13716808       1.29067973       7.47614137
14
Lattice="5.740258040689346 0.4621013602786733 -3.5834963951115564e-14 0.2834389616957467 2.5852822312399435 -4.7489562904513226e-14 1.0977235736951426e-16 2.5101401209414644e-13 14.965887308756521" Properties=species:S:1:pos:R:3 unique_starting_index=0 config_type=initial n_minim_iter=20 stress="-0.0003221677565301962 0.0004246991524350384 2.9644764507006073e-15 0.0004246991524350384 -0.0006267020053987148 1.9583297138602345e-15 2.9644764507006073e-15 1.9583297138602345e-15 -0.00045754732993105" pbc="T T T"
Si       1.91965163       1.20549393      11.90261434
Si       1.09219687       0.31819786       4.41967069
Si       4.10404537       1.84188966       3.06327297
Si       4.93150013       2.72918573      10.54621662
Si       4.64405212       1.10306412       5.39787256
Si       4.10805442       0.88272904      12.88081622
Si       1.37964488       1.94431947       9.56801475
Si       1.91564258       2.16465455       2.08507109
Si       2.43983663       0.81383248       6.40924482
Si       0.57201187       0.70985932      13.89218847
Si       3.58386037       2.23355112       8.55664249
Si       5.45168513       2.33752427       1.07369883
Si       2.87012902       0.23105068      -0.00000000
Si       0.14171948       1.29264112       7.48294365
14
Lattice="5.693705204697666 0.4925767610461078 -3.6193711628508735e-14 0.29509468358378455 2.5960561884246363 -4.784677036906124e-14 6.960175272448124e-16 2.5000228567383093e-13 14.97481538123941" Properties=species:S:1:pos:R:3 unique_starting_index=0 config_type=initial n_minim_iter=21 stress="-0.005633630758704576 0.002318549093020892 8.402325139392028e-15 0.002318549093020892 -0.001526944960557984 -8.63565973982203e-15 8.402325139392028e-15 -8.63565973982203e-15 -0.006569935039029955" pbc="T T T"
Si       1.87982291       1.25844004      11.91430678
Si       1.11457703       0.28587643       4.42689909
Si       4.10897698       1.83019291       3.06050860
Si       4.87422285       2.80275651      10.54791629
Si       4.63415104       1.14870651       5.39633974
Si       4.05395411       0.88818672      12.88374743
Si       1.35464885       1.93992644       9.57847564
Si       1.93484578       2.20044623       2.09106795
Si       2.42204052       0.77833119       6.43027823
Si       0.57235942       0.76598529      13.91768592
Si       3.56675937       2.31030176       8.54453715
Si       5.41644046       2.32264766       1.05712946
Si       2.84685260       0.24628838      -0.00000000
Si       0.14754734       1.29802809       7.48740769
