2
Lattice="3.112063992793871 0.0 0.0 0.0 3.112063992793871 0.0 0.0 0.0 3.112063992793871" Properties=species:S:1:pos:R:3 Minim_Constant_Volume=F n_minim_iter=1 stress="-0.04356009981823099 -3.065808613764726e-18 -7.073749825958395e-18 -3.065808613764726e-18 -0.043560099818230946 -7.136846973274427e-18 -7.073749825958395e-18 -7.136846973274427e-18 -0.04356009981823097" pbc="T T T"
Ti       0.00000000       0.00000000       0.00000000
Ti       1.55603200       1.55603200       1.55603200
