2
Lattice="3.2176372669670954 0.0 0.0 0.0 3.2176372669670963 0.0 0.0 0.0 3.2176372669670954" Properties=species:S:1:pos:R:3 Minim_Constant_Volume=F n_minim_iter=1 stress="0.049789465691175844 1.2285065693472408e-18 -5.125218377550528e-19 1.2285065693472408e-18 0.04978946569117598 1.6142868153835024e-18 -5.125218377550528e-19 1.6142868153835024e-18 0.04978946569117585" pbc="T T T"
Ti       0.00000000       0.00000000       0.00000000
Ti       1.60881863       1.60881863       1.60881863
