2
Lattice="4.9269727764618505 -7.765963231904277e-18 2.1826988393359613e-16 -7.765963231904273e-18 4.9269727764618505 -2.734344803872862e-16 2.4634863882309253 2.4634863882309253 1.358951486474259" Properties=species:S:1:pos:R:3 cutoff=-1.0 nneightol=1.2 n_minim_iter=1 energy=-325.66845144727506 free_energy=-325.66845144727506 pbc="T T T"
Si      -0.00000000      -1.23174319      -0.33973787
Si      -0.00000000       1.23174320       0.33973787
