2
Lattice="5.016880974380609 3.070407110078019e-17 2.119634490566157e-15 3.070407110080181e-17 5.016880974380609 -4.995598941403012e-15 2.5084404871903034 2.5084404871903057 1.5237534912307513" Properties=species:S:1:pos:R:3 cutoff=-1.0 nneightol=1.2 n_minim_iter=1 energy=-325.4285325333111 free_energy=-325.4285325333111 pbc="T T T"
Si      -0.00000000      -1.25422024      -0.38093837
Si      -0.00000000       1.25422024       0.38093837
