2
Lattice="4.443574311820002 4.207387438275539e-17 -2.7942534203801637e-16 4.20738743827556e-17 4.443574311820002 3.5152017011694943e-16 2.221787155910001 2.221787155910001 1.2042290601164238" Properties=species:S:1:pos:R:3 cutoff=-1.0 nneightol=1.2 n_minim_iter=1 energy=-324.8906900302061 free_energy=-324.8906900302061 pbc="T T T"
Si      -0.00000000      -1.11089358      -0.30105727
Si      -0.00000000       1.11089358       0.30105727
