4
Lattice="1.8420499267110895 -3.1905240631421323 1.3127236048687887e-18 1.8420499267110892 3.1905240631421323 -1.3127236048687968e-18 1.3521092929182512e-32 2.5005150964307502e-18 6.077405446068657" Properties=species:S:1:pos:R:3 cutoff=-1.0 nneightol=1.2 n_minim_iter=1 energy=-652.2649834868181 free_energy=-652.2649834868181 pbc="T T T"
Si       1.84204993       1.06350802       0.38441167
Si       1.84204993      -1.06350802       3.42311439
Si       1.84204993       1.06350802       2.65429105
Si       1.84204993      -1.06350802      -0.38441167
4
Lattice="1.8409660883541656 -3.188646800040747 2.144150382496929e-18 1.8409660883541654 3.188646800040747 -2.144150382496929e-18 1.3498594083635444e-32 9.18262429050484e-19 6.084563496557869" Properties=species:S:1:pos:R:3 cutoff=-1.0 nneightol=1.2 n_minim_iter=2 stress="-0.08706664644551618 -2.329062727085102e-16 -7.056904461924717e-17 -2.329062727085102e-16 -0.08706664644551664 -4.3900772537673953e-16 -7.056904461924717e-17 -4.3900772537673953e-16 -0.08607311918555739" pbc="T T T"
Si       1.84096609       1.06288227       0.38532805
Si       1.84096609      -1.06288227       3.42760980
Si       1.84096609       1.06288227       2.65695370
Si       1.84096609      -1.06288227      -0.38532805
4
Lattice="1.8406051184326482 -3.1880215817966753 2.4012755287687165e-18 1.840605118432648 3.1880215817966753 -2.4012755287687177e-18 1.4000842800709717e-32 4.301489756999116e-19 6.086950276594125" Properties=species:S:1:pos:R:3 cutoff=-1.0 nneightol=1.2 n_minim_iter=3 stress="-0.08678102879917932 -2.705443824221498e-17 2.0542974293066805e-16 -2.705443824221498e-17 -0.08678102879917944 -1.4354160623375096e-16 2.0542974293066805e-16 -1.4354160623375096e-16 -0.08633031614778501" pbc="T T T"
Si       1.84060512       1.06267386       0.38661363
Si       1.84060512      -1.06267386       3.43008877
Si       1.84060512       1.06267386       2.65686151
Si       1.84060512      -1.06267386      -0.38661363
4
Lattice="1.8403642534897466 -3.187604391477808 2.5487795498226393e-18 1.8403642534897464 3.187604391477808 -2.548779549822643e-18 1.2669610988746368e-32 1.500961301010275e-19 6.088543688192954" Properties=species:S:1:pos:R:3 cutoff=-1.0 nneightol=1.2 n_minim_iter=4 stress="-0.08655642468975955 1.46272940501479e-17 -2.791435539911375e-17 1.46272940501479e-17 -0.08655642468976 1.1825674341042094e-16 -2.791435539911375e-17 1.1825674341042094e-16 -0.08656069736450317" pbc="T T T"
Si       1.84036425       1.06253480       0.38753188
Si       1.84036425      -1.06253480       3.43180373
Si       1.84036425       1.06253480       2.65673996
Si       1.84036425      -1.06253480      -0.38753188
