4
Lattice="1.9425377475930528 -3.3645740744515744 6.74094512654863e-19 1.942537747593053 3.3645740744515744 -6.740945126549093e-19 7.635113045524011e-32 1.282592161175608e-18 6.401737816542048" Properties=species:S:1:pos:R:3 cutoff=-1.0 nneightol=1.2 n_minim_iter=1 energy=-652.6397329395112 free_energy=-652.6397329395112 pbc="T T T"
Si       1.94253775       1.12152469       0.40099344
Si       1.94253775      -1.12152469       3.60186235
Si       1.94253775       1.12152469       2.79987546
Si       1.94253775      -1.12152469      -0.40099344
4
Lattice="1.9420178773804457 -3.363673632829997 -5.386455162540481e-19 1.942017877380446 3.363673632829997 5.386455162539176e-19 7.67301142540803e-32 3.591275365604581e-18 6.405165713158476" Properties=species:S:1:pos:R:3 cutoff=-1.0 nneightol=1.2 n_minim_iter=2 stress="0.012249987779197719 -2.068691270370684e-17 2.284257179685594e-16 -2.068691270370684e-17 0.012249987779198382 1.777441273111381e-17 2.284257179685594e-16 1.777441273111381e-17 0.012329451673173125" pbc="T T T"
Si       1.94201788       1.12122454       0.40104936
Si       1.94201788      -1.12122454       3.60363222
Si       1.94201788       1.12122454       2.80153349
Si       1.94201788      -1.12122454      -0.40104936
