4
Lattice="1.8022834319985939 -3.121646473861172 2.2244508388128548e-18 1.8022834319985939 3.121646473861172 -2.2244508388128848e-18 4.989220724660431e-32 4.265400486266906e-18 5.9857795709554615" Properties=species:S:1:pos:R:3 cutoff=-1.0 nneightol=1.2 n_minim_iter=1 energy=-651.81200401599 free_energy=-651.81200401599 pbc="T T T"
Si       1.80228343       1.04054882       0.38374903
Si       1.80228343      -1.04054882       3.37663882
Si       1.80228343       1.04054882       2.60914075
Si       1.80228343      -1.04054882      -0.38374903
