4
Lattice="2.056271149078081 -3.5615661043412734 1.401767014506335e-17 2.056271149078081 3.5615661043412734 -1.4017670145063208e-17 -2.385084308830628e-31 2.6873430111097443e-17 6.827917678229595" Properties=species:S:1:pos:R:3 cutoff=-1.0 nneightol=1.2 n_minim_iter=1 energy=-651.8610252775386 free_energy=-651.8610252775386 pbc="T T T"
Si       2.05627115       1.18718870       0.43244272
Si       2.05627115      -1.18718870       3.84640156
Si       2.05627115       1.18718870       2.98151612
Si       2.05627115      -1.18718870      -0.43244272
4
Lattice="2.0545064643064856 -3.558509580657527 1.2533539489576626e-17 2.0545064643064856 3.558509580657527 -1.2533539489576416e-17 -1.4918460920321672e-31 2.9722735428982104e-17 6.8396521723831265" Properties=species:S:1:pos:R:3 cutoff=-1.0 nneightol=1.2 n_minim_iter=2 stress="0.06857359471716525 1.453521678907543e-16 1.0240872073346659e-16 1.453521678907543e-16 0.06857359471716658 5.820910474345192e-17 1.0240872073346659e-16 5.820910474345192e-17 0.0694557555820528" pbc="T T T"
Si       2.05450646       1.18616986       0.43538233
Si       2.05450646      -1.18616986       3.85520842
Si       2.05450646       1.18616986       2.98444375
Si       2.05450646      -1.18616986      -0.43538233
4
Lattice="2.0550371271194408 -3.5594287156112525 6.3725888753055304e-18 2.0550371271194408 3.5594287156112525 -6.372588875305437e-18 -1.490514460364637e-31 4.152923120704609e-17 6.836120284425837" Properties=species:S:1:pos:R:3 cutoff=-1.0 nneightol=1.2 n_minim_iter=3 stress="0.06877583100037621 1.48478768543102e-17 1.2056961683914743e-16 1.48478768543102e-17 0.06877583100037651 2.4557667312873213e-17 1.2056961683914743e-16 2.4557667312873213e-17 0.0689538206068845" pbc="T T T"
Si       2.05503713       1.18647624       0.43580767
Si       2.05503713      -1.18647624       3.85386782
Si       2.05503713       1.18647624       2.98225247
Si       2.05503713      -1.18647624      -0.43580767
