4
Lattice="1.9108657754749707 -3.309716609567152 -1.576004765964075e-17 1.910865775474971 3.309716609567152 1.5760047659640724e-17 3.782917220785863e-32 -3.009903630615245e-17 6.32100121432681" Properties=species:S:1:pos:R:3 cutoff=-1.0 nneightol=1.2 n_minim_iter=1 energy=-652.6186348683322 free_energy=-652.6186348683322 pbc="T T T"
Si       1.91086578       1.10323887       0.40405158
Si       1.91086578      -1.10323887       3.56455219
Si       1.91086578       1.10323887       2.75644902
Si       1.91086578      -1.10323887      -0.40405158
4
Lattice="1.9116421985512333 -3.3110614137834085 -1.4073249173919913e-17 1.9116421985512335 3.3110614137834085 1.407324917391994e-17 3.649967564732271e-32 -3.330727579598007e-17 6.315867644296134" Properties=species:S:1:pos:R:3 cutoff=-1.0 nneightol=1.2 n_minim_iter=2 stress="-0.009661037520792929 -4.541633277454376e-17 -1.7010201474697783e-17 -4.541633277454376e-17 -0.00966103752079289 -5.337055126153551e-17 -1.7010201474697783e-17 -5.337055126153551e-17 -0.010018994204703962" pbc="T T T"
Si       1.91164220       1.10368714       0.40410872
Si       1.91164220      -1.10368714       3.56204255
Si       1.91164220       1.10368714       2.75382510
Si       1.91164220      -1.10368714      -0.40410872
4
Lattice="1.9110538777883894 -3.310042412331015 -1.383728522167699e-17 1.9110538777883896 3.310042412331015 1.3837285221677038e-17 3.613647450981965e-32 -3.376421473586868e-17 6.3197569412586185" Properties=species:S:1:pos:R:3 cutoff=-1.0 nneightol=1.2 n_minim_iter=3 stress="-0.009708395541426187 3.4102730722324836e-18 -1.2939903264680817e-16 3.4102730722324836e-18 -0.009708395541426792 -4.9043726335400466e-17 -1.2939903264680817e-16 -4.9043726335400466e-17 -0.009716674570263952" pbc="T T T"
Si       1.91105388       1.10334747       0.40527939
Si       1.91105388      -1.10334747       3.56515787
Si       1.91105388       1.10334747       2.75459908
Si       1.91105388      -1.10334747      -0.40527939
