320
Lattice="17.822777881143228 1.396899361776688e-09 -1.1382994703327434e-15 -5.940925961698087 16.803476131985033 -2.4195028836249587e-09 -5.940925959722579 -8.401738064595605 14.55223720379751" Properties=species:S:1:pos:R:3 pbc="T T T"
In      -4.25543745       3.00904868       5.70235271
In       4.65595149       3.00904868       5.70235271
In      -7.22590043      11.41078675       5.70235271
In       1.68548851      11.41078675       5.70235271
In      -7.22590043      -1.19182035      12.97847131
In       1.68548851      -1.19182035      12.97847131
In     -10.19636341       7.20991771      12.97847131
In      -1.28497447       7.20991771      12.97847131
In       7.22590043       1.19182036       1.57376589
In      16.13728937       1.19182036       1.57376589
In       4.25543745       9.59355843       1.57376589
In      13.16682639       9.59355843       1.57376589
In       4.25543745      -3.00904867       8.84988449
In      13.16682639      -3.00904867       8.84988449
In       1.28497447       5.39268939       8.84988449
In      10.19636341       5.39268939       8.84988449
In       1.28497447      -0.90861416       5.21182519
In      10.19636341      -0.90861416       5.21182519
In      -1.68548851       7.49312391       5.21182519
In       7.22590043       7.49312391       5.21182519
In      -1.68548851      -5.10948319      12.48794379
In       7.22590043      -5.10948319      12.48794379
In      -4.65595149       3.29225487      12.48794379
In       4.25543745       3.29225487      12.48794379
In      -1.48523149      -2.10043451       3.63805930
In       7.42615745      -2.10043451       3.63805930
In      -4.45569447       6.30130356       3.63805930
In       4.45569447       6.30130356       3.63805930
In      -4.45569447      -6.30130354      10.91417790
In       4.45569447      -6.30130354      10.91417790
In      -7.42615745       2.10043452      10.91417790
In       1.48523149       2.10043452      10.91417790
In      -1.28497447       4.05926594       3.39279554
In       7.62641447       4.05926594       3.39279554
In      -4.25543745      12.46100401       3.39279554
In       4.65595149      12.46100401       3.39279554
In      -4.25543745      -0.14160309      10.66891414
In       4.65595149      -0.14160309      10.66891414
In      -7.22590043       8.26013497      10.66891414
In       1.68548851       8.26013497      10.66891414
In       4.65595149      -2.86744558       5.45708895
In      13.56734043      -2.86744558       5.45708895
In       1.68548851       5.53429249       5.45708895
In      10.59687745       5.53429249       5.45708895
In       1.68548851      -7.06831461      12.73320755
In      10.59687745      -7.06831461      12.73320755
In      -1.28497447       1.33342345      12.73320755
In       7.62641447       1.33342345      12.73320755
In      -1.28497447       1.33342346       5.45708895
In       7.62641447       1.33342346       5.45708895
In      -4.25543745       9.73516153       5.45708895
In       4.65595149       9.73516153       5.45708895
In      -4.25543745      -2.86744557      12.73320755
In       4.65595149      -2.86744557      12.73320755
In      -7.22590043       5.53429249      12.73320755
In       1.68548851       5.53429249      12.73320755
In      -1.68548851       7.06831461       1.81902965
In       7.22590043       7.06831461       1.81902965
In      -4.65595149      15.47005268       1.81902965
In       4.25543745      15.47005268       1.81902965
In      -4.65595149       2.86744558       9.09514825
In       4.25543745       2.86744558       9.09514825
In      -7.62641447      11.26918364       9.09514825
In       1.28497447      11.26918364       9.09514825
In       4.25543745       0.14160310       3.88332306
In      13.16682639       0.14160310       3.88332306
In       1.28497447       8.54334117       3.88332306
In      10.19636341       8.54334117       3.88332306
In       1.28497447      -4.05926593      11.15944166
In      10.19636341      -4.05926593      11.15944166
In      -1.68548851       4.34247213      11.15944166
In       7.22590043       4.34247213      11.15944166
In       7.42615745       4.20086903      -0.00000000
In      16.33754639       4.20086903      -0.00000000
In       4.45569447      12.60260710      -0.00000000
In      13.36708341      12.60260710      -0.00000000
In       4.45569447      -0.00000000       7.27611860
In      13.36708341      -0.00000000       7.27611860
In       1.48523149       8.40173806       7.27611860
In      10.39662043       8.40173807       7.27611860
In       4.25543745       6.44290665       0.24526376
In      13.16682639       6.44290665       0.24526376
In       1.28497447      14.84464472       0.24526376
In      10.19636341      14.84464472       0.24526376
In       1.28497447       2.24203762       7.52138236
In      10.19636341       2.24203762       7.52138236
In      -1.68548851      10.64377568       7.52138236
In       7.22590043      10.64377568       7.52138236
In      -1.28497447      -2.24203761       7.03085484
In       7.62641447      -2.24203761       7.03085484
In      -4.25543745       6.15970046       7.03085484
In       4.65595149       6.15970046       7.03085484
In      -4.25543745      -6.44290664      14.30697344
In       4.65595149      -6.44290664      14.30697344
In      -7.22590043       1.95883142      14.30697344
In       1.68548851       1.95883142      14.30697344
In       4.25543745       2.86744558       1.81902965
In      13.16682639       2.86744558       1.81902965
In       1.28497447      11.26918365       1.81902965
In      10.19636341      11.26918365       1.81902965
In       1.28497447      -1.33342345       9.09514825
In      10.19636341      -1.33342345       9.09514825
In      -1.68548851       7.06831461       9.09514825
In       7.22590043       7.06831461       9.09514825
In       1.68548851       5.10948320       2.06429341
In      10.59687745       5.10948320       2.06429341
In      -1.28497447      13.51122127       2.06429341
In       7.62641447      13.51122127       2.06429341
In      -1.28497447       0.90861417       9.34041201
In       7.62641447       0.90861417       9.34041201
In      -4.25543745       9.31035223       9.34041201
In       4.65595149       9.31035223       9.34041201
In       1.48523149       8.40173807      -0.00000000
In      10.39662043       8.40173807      -0.00000000
In      -1.48523149      16.80347613      -0.00000000
In       7.42615745      16.80347613      -0.00000000
In      -1.48523149       4.20086903       7.27611860
In       7.42615745       4.20086903       7.27611860
In      -4.45569447      12.60260710       7.27611860
In       4.45569447      12.60260710       7.27611860
In       1.48523149       2.10043452       3.63805930
In      10.39662043       2.10043452       3.63805930
In      -1.48523149      10.50217259       3.63805930
In       7.42615745      10.50217259       3.63805930
In      -1.48523149      -2.10043451      10.91417790
In       7.42615745      -2.10043451      10.91417790
In      -4.45569447       6.30130355      10.91417790
In       4.45569447       6.30130355      10.91417790
O        0.87151664       4.19589950       3.96786320
O        9.78623891       4.20061355       3.95969823
O       -2.09561301      12.60235162       3.95969823
O        6.81577593      12.60235162       3.95969823
O       -2.09561301      -0.00025548      11.23581683
O        6.81577593      -0.00025548      11.23581683
O       -5.06607599       8.40148258      11.23581683
O        3.84531295       8.40148258      11.23581683
O       -2.09561301       3.42932701       5.29649074
O        6.81577593       3.42932701       5.29649074
O       -5.06607599      11.83106508       5.29649074
O        3.84531295      11.83106508       5.29649074
O       -5.06607599      -0.77154202      12.57260934
O        3.84531295      -0.77154202      12.57260934
O       -8.03653897       7.63019604      12.57260934
O        0.87484997       7.63019604      12.57260934
O       -0.43604102       2.25583240       0.05292442
O        8.47534792       2.25583240       0.05292442
O       -3.40650400      10.65757047       0.05292442
O        5.50488494      10.65757047       0.05292442
O       -3.40650400      -1.94503663       7.32904302
O        5.50488494      -1.94503663       7.32904302
O       -6.37696698       6.45670143       7.32904302
O        2.53442196       6.45670143       7.32904302
O       -0.87484998      -0.77179752       1.98007037
O        8.03653896      -0.77179752       1.98007037
O       -3.84531296       7.62994055       1.98007037
O        5.06607598       7.62994055       1.98007037
O       -3.84531296      -4.97266655       9.25618897
O        5.06607598      -4.97266655       9.25618897
O       -6.81577594       3.42907151       9.25618897
O        2.09561300       3.42907151       9.25618897
O        3.93173817       5.00322248       1.92714595
O       12.84312711       5.00322248       1.92714595
O        0.96127519      13.40496055       1.92714595
O        9.87266413      13.40496055       1.92714595
O        0.96127519       0.80235345       9.20326455
O        9.87266413       0.80235345       9.20326455
O       -2.00918779       9.20409151       9.20326455
O        6.90220115       9.20409151       9.20326455
O        2.00918778       2.93308841       1.65843144
O       10.92057672       2.93308841       1.65843144
O       -0.96127520      11.33482648       1.65843144
O        7.95011374      11.33482648       1.65843144
O       -0.96127520      -1.26778062       8.93455004
O        7.95011374      -1.26778062       8.93455004
O       -3.93173818       7.13395744       8.93455004
O        4.97965076       7.13395744       8.93455004
O        2.00918778       6.27100311       0.26871451
O       10.92057672       6.27100311       0.26871451
O       -0.96127520      14.67274118       0.26871451
O        7.95011374      14.67274118       0.26871451
O       -0.96127520       2.07013408       7.54483311
O        7.95011374       2.07013408       7.54483311
O       -3.93173818      10.47187214       7.54483311
O        4.97965076      10.47187214       7.54483311
O       -2.27216619       5.96046283       3.69098372
O        6.63922275       5.96046283       3.69098372
O       -5.24262917      14.36220090       3.69098372
O        3.66875977      14.36220090       3.69098372
O       -5.24262917       1.75959380      10.96710232
O        3.66875977       1.75959380      10.96710232
O       -8.21309215      10.16133186      10.96710232
O        0.69829679      10.16133186      10.96710232
O        3.40650400       1.94503664       7.22319418
O       12.31789294       1.94503664       7.22319418
O        0.43604102      10.34677471       7.22319418
O        9.34742996      10.34677471       7.22319418
O        0.43604102      -2.25583239      14.49931278
O        9.34742996      -2.25583239      14.49931278
O       -2.53442196       6.14590567      14.49931278
O        6.37696698       6.14590567      14.49931278
O        5.24262917      -1.75959380       3.58513488
O       14.15401811      -1.75959380       3.58513488
O        2.27216619       6.64214427       3.58513488
O       11.18355513       6.64214427       3.58513488
O        2.27216619      -5.96046283      10.86125348
O       11.18355513      -5.96046283      10.86125348
O       -0.69829679       2.44127523      10.86125348
O        8.21309215       2.44127523      10.86125348
O        6.37696698       3.27418461       1.71091335
O       15.28835592       3.27418461       1.71091335
O        3.40650400      11.67592268       1.71091335
O       12.31789294      11.67592268       1.71091335
O        3.40650400      -0.92668442       8.98703195
O       12.31789294      -0.92668442       8.98703195
O        0.43604102       7.47505364       8.98703195
O        9.34742996       7.47505364       8.98703195
O        3.66875977       2.31668877       3.90677381
O       12.58014871       2.31668877       3.90677381
O        0.69829679      10.71842684       3.90677381
O        9.60968573      10.71842684       3.90677381
O        0.69829679      -1.88418026      11.18289241
O        9.60968573      -1.88418026      11.18289241
O       -2.27216619       6.51755780      11.18289241
O        6.63922275       6.51755780      11.18289241
O        0.69829679       4.32545550       6.95447967
O        9.60968573       4.32545550       6.95447967
O       -2.27216619      12.72719357       6.95447967
O        6.63922275      12.72719357       6.95447967
O       -2.27216619       0.12458647      14.23059827
O        6.63922275       0.12458647      14.23059827
O       -5.24262917       8.52632453      14.23059827
O        3.66875977       8.52632453      14.23059827
O        2.27216619      -0.12458646       0.32163893
O       11.18355513      -0.12458646       0.32163893
O       -0.69829679       8.27715161       0.32163893
O        8.21309215       8.27715161       0.32163893
O       -0.69829679      -4.32545549       7.59775753
O        8.21309215      -4.32545549       7.59775753
O       -3.66875977       4.07628257       7.59775753
O        5.24262917       4.07628257       7.59775753
O       -3.40650400       0.92668443       5.56520525
O        5.50488494       0.92668443       5.56520525
O       -6.37696698       9.32842250       5.56520525
O        2.53442196       9.32842250       5.56520525
O       -6.37696698      -3.27418460      12.84132385
O        2.53442196      -3.27418460      12.84132385
O       -9.34742996       5.12755346      12.84132385
O       -0.43604102       5.12755346      12.84132385
O        5.06607598       0.77154203       1.97962785
O       13.97746492       0.77154203       1.97962785
O        2.09561300       9.17328010       1.97962785
O       11.00700194       9.17328010       1.97962785
O        2.09561300      -3.42932700       9.25574645
O       11.00700194      -3.42932700       9.25574645
O       -0.87484998       4.97241106       9.25574645
O        8.03653896       4.97241106       9.25574645
O        0.96127519       1.26778063       5.61768716
O        9.87266413       1.26778063       5.61768716
O       -2.00918779       9.66951870       5.61768716
O        6.90220115       9.66951870       5.61768716
O       -2.00918779      -2.93308840      12.89380576
O        6.90220115      -2.93308840      12.89380576
O       -4.97965077       5.46864966      12.89380576
O        3.93173817       5.46864966      12.89380576
O        3.40650400      -1.01835221       5.61812967
O       12.31789294      -1.01835221       5.61812967
O        0.43604102       7.38338586       5.61812967
O        9.34742996       7.38338586       5.61812967
O        0.43604102      -5.21922124      12.89424827
O        9.34742996      -5.21922124      12.89424827
O       -2.53442196       3.18251682      12.89424827
O        6.37696698       3.18251682      12.89424827
O        2.09561300       0.00025549       3.31642037
O       11.00700194       0.00025549       3.31642037
O       -0.87484998       8.40199356       3.31642037
O        8.03653896       8.40199356       3.31642037
O       -0.87484998      -4.20061354      10.59253897
O        8.03653896      -4.20061354      10.59253897
O       -3.84531296       4.20112452      10.59253897
O        5.06607598       4.20112452      10.59253897
O        0.96127519      -2.07013407       7.00740409
O        9.87266413      -2.07013407       7.00740409
O       -2.00918779       6.33160400       7.00740409
O        6.90220115       6.33160400       7.00740409
O       -2.00918779      -6.27100310      14.28352269
O        6.90220115      -6.27100310      14.28352269
O       -4.97965077       2.13073496      14.28352269
O        3.93173817       2.13073496      14.28352269
O       -0.69829679       1.88418027       3.36934479
O        8.21309215       1.88418027       3.36934479
O       -3.66875977      10.28591834       3.36934479
O        5.24262917      10.28591834       3.36934479
O       -3.66875977      -2.31668876      10.64546339
O        5.24262917      -2.31668876      10.64546339
O       -6.63922275       6.08504930      10.64546339
O        2.27216619       6.08504930      10.64546339
O       -0.96127520      -0.80235344       5.34897265
O        7.95011374      -0.80235344       5.34897265
O       -3.93173818       7.59938463       5.34897265
O        4.97965076       7.59938463       5.34897265
O       -3.93173818      -5.00322247      12.62509125
O        4.97965076      -5.00322247      12.62509125
O       -6.90220116       3.39851559      12.62509125
O        2.00918778       3.39851559      12.62509125
O       -0.43604102       5.21922125       1.65798892
O        8.47534792       5.21922125       1.65798892
O       -3.40650400      13.62095932       1.65798892
O        5.50488494      13.62095932       1.65798892
O       -3.40650400       1.01835222       8.93410752
O        5.50488494       1.01835222       8.93410752
O       -6.37696698       9.42009028       8.93410752
O        2.53442196       9.42009028       8.93410752
O        3.84531295       4.97266655       5.29604822
O       12.75670189       4.97266655       5.29604822
O        0.87484997      13.37440462       5.29604822
O        9.78623891      13.37440462       5.29604822
O        0.87484997       0.77179752      12.57216682
O        9.78623891       0.77179752      12.57216682
O       -2.09561301       9.17353558      12.57216682
O        6.81577593       9.17353558      12.57216682
