1
Lattice="2.682781627166066 7.538904476003266e-17 -8.898837517357512e-50 1.341390813583033 2.3233570419319656 2.0054417823524007e-49 1.8283461004197077e-49 -6.001578209654385e-49 2.49779220676244" Properties=species:S:1:pos:R:3 cutoff=-1.0 nneightol=1.2 n_minim_iter=1 energy=-162.83164468505007 free_energy=-162.83164468505007 pbc="T T T"
Si       0.00000000       0.00000000       0.00000000
