1
Lattice="2.806071466228228 6.599550327797762e-17 5.9399659455696e-50 1.4030357331141141 2.4301291745882923 1.549973698692481e-49 9.403945778672186e-49 -2.5129672488484517e-48 2.561553747504942" Properties=species:S:1:pos:R:3 cutoff=-1.0 nneightol=1.2 n_minim_iter=1 energy=-162.74737231939017 free_energy=-162.74737231939017 pbc="T T T"
Si       0.00000000       0.00000000       0.00000000
