2
Lattice="4.964840819301526 3.1309268880798524e-17 1.2715857470387492e-16 3.130926888079843e-17 4.964840819301526 -3.3613951544780435e-16 2.482420409650763 2.482420409650763 1.369160379372199" Properties=species:S:1:pos:R:3 cutoff=-1.0 nneightol=1.2 n_minim_iter=1 energy=-325.6374032462837 free_energy=-325.6374032462837 pbc="T T T"
Si      -0.00000000      -1.24121020      -0.34229009
Si      -0.00000000       1.24121021       0.34229009
