2
Lattice="4.84933725591989 3.0580880548881274e-17 1.24200319036195e-16 3.0580880548881003e-17 4.84933725591989 -3.2831946376021346e-16 2.424668627959945 2.424668627959945 1.3373078168401564" Properties=species:S:1:pos:R:3 cutoff=-1.0 nneightol=1.2 n_minim_iter=1 energy=-325.70851546477877 free_energy=-325.70851546477877 pbc="T T T"
Si      -0.00000000      -1.21233431      -0.33432695
Si      -0.00000000       1.21233432       0.33432695
