2
Lattice="4.490849927220531 4.252150238763388e-17 -2.8239817518456963e-16 4.252150238763406e-17 4.490849927220531 3.5526002708834583e-16 2.2454249636102657 2.2454249636102657 1.2170409691574786" Properties=species:S:1:pos:R:3 cutoff=-1.0 nneightol=1.2 n_minim_iter=1 energy=-325.09575092244313 free_energy=-325.09575092244313 pbc="T T T"
Si      -0.00000000      -1.12271248      -0.30426024
Si      -0.00000000       1.12271248       0.30426024
