4
Lattice="4.485204704396131 0.026212556478834716 8.033947525590095e-13 1.9487240121135334 4.039829583418895 2.36703286044108e-12 -3.21696435825525 -2.0330210699500535 2.3739658770312735" Properties=species:S:1:pos:R:3:tags:I:1 spacegroup="P 1" unit_cell=conventional n_minim_iter=1 energy=-1922.9117115847919 free_energy=-1922.9117115847919 pbc="T T T"
Ti       0.00000000       0.00000000       0.00000000        0
Al       3.21696436       2.03302107       0.00000000        1
Al       2.24260235       0.01310628       1.18698294        2
Al       0.97436201       2.01991479       1.18698294        3
4
Lattice="4.518678591041605 0.06534795282024566 8.288319469581908e-13 1.998438460892075 4.053266618679658 2.3823838741837153e-12 -3.258558525967256 -2.059307285751135 2.3587658637037157" Properties=species:S:1:pos:R:3:tags:I:1 spacegroup="P 1" unit_cell=conventional n_minim_iter=2 stress="-3.093024360471526 -0.0024873702556503226 2.792086546554649e-15 -0.0024873702556503226 -3.0906603940377506 1.6014601193634772e-15 2.792086546554649e-15 1.6014601193634772e-15 -3.089088453669332" pbc="T T T"
Ti       0.00000000       0.00000000       0.00000000        0
Al       3.25855853       2.05930729       0.00000000        1
Al       2.25933930       0.03267398       1.17938293        2
Al       0.99921923       2.02663331       1.17938293        3
