4
Lattice="4.515092698483408 -0.032015701451051606 7.74682616504305e-13 1.9089596083370746 4.091816258677209 2.385394180630482e-12 -3.2120261534106693 -2.029900278614301 2.43915557718753" Properties=species:S:1:pos:R:3:tags:I:1 spacegroup="P 1" unit_cell=conventional n_minim_iter=1 energy=-1926.910431080528 free_energy=-1926.910431080528 pbc="T T T"
Ti       0.00000000       0.00000000       0.00000000        0
Al       3.21202615       2.02990028       0.00000000        1
Al       2.25754635      -0.01600785       1.21957779        2
Al       0.95447980       2.04590813       1.21957779        3
4
Lattice="4.5376406343730755 -0.00516564891917571 7.91873661764836e-13 1.94288840154182 4.100657736241433 2.3955692362409447e-12 -3.240264517957874 -2.0477460436623467 2.428503902605654" Properties=species:S:1:pos:R:3:tags:I:1 spacegroup="P 1" unit_cell=conventional n_minim_iter=2 stress="-0.5562433132669184 -0.00325481661442537 -3.038603355793288e-15 -0.00325481661442537 -0.553149975149236 -2.770567962137152e-15 -3.038603355793288e-15 -2.770567962137152e-15 -0.5510930326347924" pbc="T T T"
Ti       0.00000000       0.00000000       0.00000000        0
Al       3.24026452       2.04774604       0.00000000        1
Al       2.26882032      -0.00258282       1.21425195        2
Al       0.97144420       2.05032887       1.21425195        3
