1
Lattice="2.6444397226714234 1.2114860845577129e-17 -3.198383671287429e-51 1.322219861335712 2.290151978610128 2.981881373615631e-49 1.9339159621128226e-49 -1.402225969782027e-48 2.463596741056728" Properties=species:S:1:pos:R:3 cutoff=-1.0 nneightol=1.2 n_minim_iter=1 energy=-162.83438776752863 free_energy=-162.83438776752863 pbc="T T T"
Si       0.00000000       0.00000000       0.00000000
