8
Lattice="5.418835598013959 -3.221609339456426e-16 -6.20775929066439e-50 -2.709417799006979 4.692849286811529 -1.0727454108483374e-47 5.4945513102678e-50 1.099558071418566e-47 4.796266872004635" Properties=species:S:1:pos:R:3:tags:I:1 spacegroup="P 1" unit_cell=conventional n_minim_iter=1 energy=-9783.562500611477 free_energy=-9783.562500611477 pbc="T T T"
Ti       2.70941780       3.20700206       1.19906672        0
Ti      -1.42263228       3.94992802       3.59720015        1
Ti       1.42263229       3.94992802       3.59720015        2
Ti       1.28678551       0.74293066       1.19906672        3
Ti       4.13205009       0.74293066       1.19906672        4
Ti       0.00000000       1.48585662       3.59720015        5
Al       0.00000000       3.12857089       1.19906672        6
Al       2.70941780       1.56428779       3.59720015        7
8
Lattice="5.466696954507444 -2.985076681941979e-16 -6.306730583633767e-50 -2.733348477253721 4.73429843739447 -1.0831159610857436e-47 5.156874356419163e-50 1.0797231758065174e-47 4.712651134420731" Properties=species:S:1:pos:R:3:tags:I:1 spacegroup="P 1" unit_cell=conventional n_minim_iter=2 stress="-0.08265274231501007 3.3162248690536567e-16 -1.0010759381560408e-16 3.3162248690536567e-16 -0.08265274231500984 7.268393796149752e-17 -1.0010759381560408e-16 7.268393796149752e-17 -0.0851741883228437" pbc="T T T"
Ti       2.73334848       3.23365397       1.17816278        0
Ti      -1.43374814       3.98397857       3.53448835        1
Ti       1.43374815       3.98397857       3.53448835        2
Ti       1.29960034       0.75032934       1.17816278        3
Ti       4.16709663       0.75032934       1.17816278        4
Ti       0.00000000       1.50065394       3.53448835        5
Al       0.00000000       3.15620370       1.17816278        6
Al       2.73334848       1.57810422       3.53448835        7
8
Lattice="5.4650043534643995 -1.8569970204970436e-16 2.6256305552443384e-48 -2.732502176732198 4.732832601892721 -1.0781571600358422e-47 7.477597587279468e-49 1.1421000456013227e-48 4.715570756421793" Properties=species:S:1:pos:R:3:tags:I:1 spacegroup="P 1" unit_cell=conventional n_minim_iter=3 stress="-0.06503486556226518 2.2204367054204246e-16 -2.9525085091961934e-17 2.2204367054204246e-16 -0.06503486556226619 -6.647685358213544e-17 -2.9525085091961934e-17 -6.647685358213544e-17 -0.07221016500295957" pbc="T T T"
Ti       2.73250218       3.21738403       1.17889269        0
Ti      -1.42008111       3.97511069       3.53667806        1
Ti       1.42008112       3.97511069       3.53667806        2
Ti       1.31242107       0.75773139       1.17889269        3
Ti       4.15258330       0.75773139       1.17889269        4
Ti       0.00000000       1.51545804       3.53667806        5
Al       0.00000000       3.15522647       1.17889269        6
Al       2.73250218       1.57761560       3.53667806        7
