8
Lattice="6.355952765783511 -6.837063989787282e-16 -2.82174688152603e-48 -3.1779763828917558 5.504416560422484 8.12381745599082e-49 2.2248422032004985e-48 5.44889773386252e-49 5.011431764998175" Properties=species:S:1:pos:R:3:tags:I:1 spacegroup="P 1" unit_cell=conventional n_minim_iter=1 energy=-9781.00373124066 free_energy=-9781.00373124066 pbc="T T T"
Ti       3.17797639       3.78000236       1.25285794        0
Ti      -1.68458510       4.64221221       3.75857382        1
Ti       1.68458511       4.64221221       3.75857382        2
Ti       1.49339128       0.86221537       1.25285794        3
Ti       4.86256149       0.86221537       1.25285794        4
Ti       0.00000001       1.72442522       3.75857382        5
Al       0.00000001       3.66961655       1.25285794        6
Al       3.17797639       1.83481103       3.75857382        7
8
Lattice="6.338467272891113 -6.569223932899653e-16 -2.792221685458672e-48 -3.169233636445557 5.489273679379974 8.491534399441742e-49 2.2083094400190292e-48 4.8363833842977406e-49 5.039119285183133" Properties=species:S:1:pos:R:3:tags:I:1 spacegroup="P 1" unit_cell=conventional n_minim_iter=2 stress="0.2606005740199482 1.782423289040679e-16 3.557039336237097e-17 1.782423289040679e-16 0.2606005740199484 3.905697639019803e-18 3.557039336237097e-17 3.905697639019803e-18 0.2609329093597741" pbc="T T T"
Ti       3.16923364       3.76912860       1.25977982        0
Ti      -1.67953953       4.62920388       3.77933946        1
Ti       1.67953954       4.62920388       3.77933946        2
Ti       1.48969410       0.86008078       1.25977982        3
Ti       4.84877318       0.86008078       1.25977982        4
Ti       0.00000001       1.72015607       3.77933946        5
Al       0.00000001       3.65952128       1.25977982        6
Al       3.16923364       1.82976339       3.77933946        7
8
Lattice="6.337287667201284 -6.524490417674758e-16 -2.974430389366444e-48 -3.1686438336006426 5.488252110886135 -1.61001169017083e-48 2.4238960085875362e-48 1.7666910646558943e-48 5.040995396008128" Properties=species:S:1:pos:R:3:tags:I:1 spacegroup="P 1" unit_cell=conventional n_minim_iter=3 stress="0.25970081928376726 2.768200720310731e-16 5.584563450734434e-17 2.768200720310731e-16 0.2597008192837674 5.0552688725438433e-17 5.584563450734434e-17 5.0552688725438433e-17 0.25960078076792764" pbc="T T T"
Ti       3.16864384       3.76461396       1.26024885        0
Ti      -1.67592465       4.62643578       3.78074654        1
Ti       1.67592466       4.62643578       3.78074654        2
Ti       1.49271918       0.86182731       1.26024885        3
Ti       4.84456849       0.86182731       1.26024885        4
Ti       0.00000001       1.72364913       3.78074654        5
Al       0.00000001       3.65884023       1.26024885        6
Al       3.16864384       1.82942286       3.78074654        7
