8
Lattice="6.646268576504955 -1.0495405619495823e-15 -9.775942956642082e-46 -3.323134288252476 5.7558374276275295 7.980786508161626e-47 7.838274462551386e-46 3.786544838202653e-46 5.328926067339763" Properties=species:S:1:pos:R:3:tags:I:1 spacegroup="P 1" unit_cell=conventional n_minim_iter=1 energy=-10085.849321847856 free_energy=-10085.849321847856 pbc="T T T"
Ti       3.32313429       3.90056340       1.33223151        0
Ti      -1.71641486       4.82820330       3.99669455        1
Ti       1.71641487       4.82820330       3.99669455        2
Ti       1.60671943       0.92764565       1.33223151        3
Ti       5.03954916       0.92764565       1.33223151        4
Ti       0.00000001       1.85528555       3.99669455        5
Al       0.00000001       3.83723071       1.33223151        6
Al       3.32313429       1.91861824       3.99669455        7
8
Lattice="6.671387553345283 -1.081792763095962e-15 -9.841817744153153e-46 -3.33569377667264 5.777591099688327 7.419075865621962e-47 7.755908334100762e-46 3.691534370800094e-46 5.28887287864045" Properties=species:S:1:pos:R:3:tags:I:1 spacegroup="P 1" unit_cell=conventional n_minim_iter=2 stress="-2.484546027704719 1.9865857042759613e-16 -1.1321071262610047e-18 1.9865857042759613e-16 -2.4845460277047056 3.407630155201386e-17 -1.1321071262610047e-18 3.407630155201386e-17 -3.380542836778036" pbc="T T T"
Ti       3.33569378       3.93093637       1.32221822        0
Ti      -1.73643886       4.85426663       3.96665466        1
Ti       1.73643887       4.85426663       3.96665466        2
Ti       1.59925492       0.92333604       1.32221822        3
Ti       5.07213264       0.92333604       1.32221822        4
Ti       0.00000001       1.84666629       3.96665466        5
Al       0.00000001       3.85173318       1.32221822        6
Al       3.33569378       1.92586948       3.96665466        7
8
Lattice="6.672930607144571 -1.0875021325012734e-15 -9.876889106921142e-46 -3.336465303572284 5.778927423477916 7.827378831460256e-47 7.746629647431207e-46 3.673393164437775e-46 5.286427155077628" Properties=species:S:1:pos:R:3:tags:I:1 spacegroup="P 1" unit_cell=conventional n_minim_iter=3 stress="-2.3936028067367845 3.984511500022617e-15 2.5714792113665286e-15 3.984511500022617e-15 -2.393602806736801 -9.863384207805084e-15 2.5714792113665286e-15 -9.863384207805084e-15 -2.5305430113217344" pbc="T T T"
Ti       3.33646531       3.95697781       1.32160679        0
Ti      -1.75860564       4.86795551       3.96482036        1
Ti       1.75860565       4.86795551       3.96482036        2
Ti       1.57785967       0.91098348       1.32160679        3
Ti       5.09507095       0.91098348       1.32160679        4
Ti       0.00000001       1.82196119       3.96482036        5
Al       0.00000001       3.85262407       1.32160679        6
Al       3.33646531       1.92631493       3.96482036        7
8
Lattice="6.669597271103276 -1.0979975566920886e-15 -1.0969881185562429e-45 -3.334798635551637 5.776040669786806 1.2163261815607438e-46 7.401270211411188e-46 7.526939794366836e-46 5.291712584130281" Properties=species:S:1:pos:R:3:tags:I:1 spacegroup="P 1" unit_cell=conventional n_minim_iter=4 stress="-2.465841200478305 4.776021050553215e-15 2.348430001138582e-15 4.776021050553215e-15 -2.4658412004782675 1.1892450542106693e-14 2.348430001138582e-15 1.1892450542106693e-14 -2.4543667494817196" pbc="T T T"
Ti       3.33479864       3.95355520       1.32292814        0
Ti      -1.75647490       4.86480082       3.96878444        1
Ti       1.75647492       4.86480082       3.96878444        2
Ti       1.57832373       0.91125141       1.32292814        3
Ti       5.09127355       0.91125141       1.32292814        4
Ti       0.00000001       1.82249704       3.96878444        5
Al       0.00000001       3.85069956       1.32292814        6
Al       3.33479864       1.92535267       3.96878444        7
8
Lattice="6.669941851519561 -1.0965192798623679e-15 -1.2290370911552952e-45 -3.3349709257597793 5.776339085180955 3.298475508600976e-47 7.747600979108702e-46 8.529503030886931e-46 5.291165840705774" Properties=species:S:1:pos:R:3:tags:I:1 spacegroup="P 1" unit_cell=conventional n_minim_iter=5 stress="-2.4580180274253123 -8.960726552635028e-15 1.2327169328296449e-16 -8.960726552635028e-15 -2.458018027425319 -4.071078812509719e-15 1.2327169328296449e-16 -4.071078812509719e-15 -2.457933638380053" pbc="T T T"
Ti       3.33497093       3.95403035       1.32279146        0
Ti      -1.75680026       4.86518761       3.96837438        1
Ti       1.75680027       4.86518761       3.96837438        2
Ti       1.57817067       0.91116304       1.32279146        3
Ti       5.09177119       0.91116304       1.32279146        4
Ti       0.00000001       1.82232030       3.96837438        5
Al       0.00000001       3.85089850       1.32279146        6
Al       3.33497093       1.92545214       3.96837438        7
