8
Lattice="7.144404501087489 -1.1207601088076843e-15 -3.2736416092851964e-47 -3.5722022505437425 6.187235792853653 4.221568452574809e-45 3.018772987533681e-47 -4.477703910872269e-45 6.588178516159288" Properties=species:S:1:pos:R:3:tags:I:1 spacegroup="P 1" unit_cell=conventional n_minim_iter=1 energy=-9897.930683348677 free_energy=-9897.930683348677 pbc="T T T"
Ti       3.57220226       3.37950570       1.64704463        0
Ti      -1.14063129       4.78337384       4.94113388        1
Ti       1.14063130       4.78337384       4.94113388        2
Ti       2.43157096       1.40387434       1.64704463        3
Ti       4.71283355       1.40387434       1.64704463        4
Ti       0.00000001       2.80774248       4.94113388        5
Al       0.00000001       4.12483005       1.64704463        6
Al       3.57220226       2.06241812       4.94113388        7
8
Lattice="7.1552357875311685 -1.1743909144946415e-15 -3.2993343712084863e-47 -3.5776178937655825 6.196615962069546 4.227840281807181e-45 2.9774835565980823e-47 -4.466764760549206e-45 6.56824781335607" Properties=species:S:1:pos:R:3:tags:I:1 spacegroup="P 1" unit_cell=conventional n_minim_iter=2 stress="4.389467204646203 1.87204335054361e-15 -5.483691579577444e-16 1.87204335054361e-15 4.389467204646205 -4.974518832933579e-16 -5.483691579577444e-16 -4.974518832933579e-16 4.40415215480083" pbc="T T T"
Ti       3.57761790       3.38454958       1.64206195        0
Ti      -1.14229159       4.79058587       4.92618586        1
Ti       1.14229160       4.79058587       4.92618586        2
Ti       2.43532630       1.40604249       1.64206195        3
Ti       4.71990950       1.40604249       1.64206195        4
Ti       0.00000001       2.81207879       4.92618586        5
Al       0.00000001       4.13108351       1.64206195        6
Al       3.57761790       2.06554486       4.92618586        7
8
Lattice="7.15544135443716 -1.1708214768964726e-15 -4.628973940544174e-47 -3.5777206772185783 6.1967939882323115 4.227958234117713e-45 3.3857690181877943e-47 -4.4547170892689206e-45 6.567870423641357" Properties=species:S:1:pos:R:3:tags:I:1 spacegroup="P 1" unit_cell=conventional n_minim_iter=3 stress="4.391829603656501 2.332109179374776e-15 1.2945578452079454e-15 2.332109179374776e-15 4.391829603656495 -2.2546164339743804e-15 1.2945578452079454e-15 -2.2546164339743804e-15 4.391630448185808" pbc="T T T"
Ti       3.57772068       3.38357072       1.64196760        0
Ti      -1.14139248       4.79018546       4.92590281        1
Ti       1.14139250       4.79018546       4.92590281        2
Ti       2.43632819       1.40662094       1.64196760        3
Ti       4.71911317       1.40662094       1.64196760        4
Ti       0.00000001       2.81323567       4.92590281        5
Al       0.00000001       4.13120219       1.64196760        6
Al       3.57772068       2.06560420       4.92590281        7
