4
Lattice="4.065585427259415 0.0 0.0 0.0 4.065585427259415 0.0 0.0 0.0 4.065585427259415" Properties=species:S:1:pos:R:3 n_minim_iter=1 stress="-0.007228754117124647 -1.538782038665358e-17 -4.783109404767706e-18 -1.538782038665358e-17 -0.007228754117124673 -3.994738844294162e-18 -4.783109404767706e-18 -3.994738844294162e-18 -0.007228754117124687" pbc="T T T"
Al       0.00000000       0.00000000       0.00000000
Al       2.03279271       2.03279271       0.00000000
Al       2.03279271       0.00000000       2.03279271
Al       0.00000000       2.03279271       2.03279271
