8
Lattice="6.790294766875378 -7.6601966456324305e-16 4.4716475692130027e-48 -3.3951473834376884 5.88056776729861 -1.3740937229277549e-47 -3.0498074238268606e-48 9.060770355098212e-48 4.631199366553378" Properties=species:S:1:pos:R:3:tags:I:1 spacegroup="P 1" unit_cell=conventional n_minim_iter=1 energy=-9786.213594574923 free_energy=-9786.213594574923 pbc="T T T"
Ti       3.39514739       3.80412353       1.15779984        0
Ti      -1.59688883       4.84234859       3.47339952        1
Ti       1.59688884       4.84234859       3.47339952        2
Ti       1.79825856       1.03823094       1.15779984        3
Ti       4.99203622       1.03823094       1.15779984        4
Ti       0.00000001       2.07645600       3.47339952        5
Al       0.00000001       3.92038440       1.15779984        6
Al       3.39514739       1.96019514       3.47339952        7
8
Lattice="6.786589514199125 -7.814629808617392e-16 4.4806188334718864e-48 -3.393294757099562 5.877358924353537 -1.3710114887799502e-47 -3.047195344240052e-48 9.092669387582519e-48 4.636257709375521" Properties=species:S:1:pos:R:3:tags:I:1 spacegroup="P 1" unit_cell=conventional n_minim_iter=2 stress="0.02049963066514493 -4.465145983839997e-16 2.574017456236959e-16 -4.465145983839997e-16 0.020499630665146977 -1.0627259620499323e-16 2.574017456236959e-16 -1.0627259620499323e-16 0.019907925014096987" pbc="T T T"
Ti       3.39329476       3.80205418       1.15906442        0
Ti      -1.59602303       4.83970949       3.47719328        1
Ti       1.59602304       4.83970949       3.47719328        2
Ti       1.79727173       1.03766119       1.15906442        3
Ti       4.98931780       1.03766119       1.15906442        4
Ti       0.00000001       2.07531651       3.47719328        5
Al       0.00000001       3.91824517       1.15906442        6
Al       3.39329476       1.95912552       3.47719328        7
8
Lattice="6.786243239708851 -7.847437244743178e-16 8.949404370633592e-48 -3.393121619854425 5.877059041848275 -1.0557419280162466e-47 -3.8545008479295485e-48 1.4833334346396946e-47 4.636730860330291" Properties=species:S:1:pos:R:3:tags:I:1 spacegroup="P 1" unit_cell=conventional n_minim_iter=3 stress="0.02027232480160618 -5.329110374531475e-16 -5.082882204649741e-17 -5.329110374531475e-16 0.02027232480160643 5.3072263610084996e-17 -5.082882204649741e-17 5.3072263610084996e-17 0.020289392867717724" pbc="T T T"
Ti       3.39312163       3.80133219       1.15918271        0
Ti      -1.59548433       4.83919855       3.47754814        1
Ti       1.59548434       4.83919855       3.47754814        2
Ti       1.79763729       1.03787225       1.15918271        3
Ti       4.98860596       1.03787225       1.15918271        4
Ti       0.00000001       2.07573862       3.47754814        5
Al       0.00000001       3.91804524       1.15918271        6
Al       3.39312163       1.95902556       3.47754814        7
8
Lattice="6.786114206734135 -7.881165617020752e-16 9.630930913286335e-48 -3.393057103367067 5.876947296014247 -1.3708408159113735e-47 -3.826192471621135e-48 1.5470906969891073e-47 4.636907190066476" Properties=species:S:1:pos:R:3:tags:I:1 spacegroup="P 1" unit_cell=conventional n_minim_iter=4 stress="0.020299689274087485 2.0850127130119202e-17 -1.2768824956271937e-16 2.0850127130119202e-17 0.020299689274090617 9.739673346551895e-17 -1.2768824956271937e-16 9.739673346551895e-17 0.020310026143427938" pbc="T T T"
Ti       3.39305711       3.80088746       1.15922680        0
Ti      -1.59513144       4.83892032       3.47768039        1
Ti       1.59513145       4.83892032       3.47768039        2
Ti       1.79792566       1.03803874       1.15922680        3
Ti       4.98818856       1.03803874       1.15922680        4
Ti       0.00000001       2.07607160       3.47768039        5
Al       0.00000001       3.91797075       1.15922680        6
Al       3.39305711       1.95898831       3.47768039        7
