8
Lattice="6.027947976640117 1.2306837622017033e-16 2.967834114669939e-48 -3.0139739883200587 5.220356080461348 1.0400593164018768e-48 -2.4304190136121505e-48 -2.3866909428341197e-48 4.936407767224669" Properties=species:S:1:pos:R:3:tags:I:1 spacegroup="P 1" unit_cell=conventional n_minim_iter=1 energy=-9784.159630750477 free_energy=-9784.159630750477 pbc="T T T"
Ti       3.01397399       3.35434363       1.23410194        0
Ti      -1.39795527       4.28735247       3.70230582        1
Ti       1.39795528       4.28735247       3.70230582        2
Ti       1.61601872       0.93301406       1.23410194        3
Ti       4.41192927       0.93301406       1.23410194        4
Ti       0.00000001       1.86602290       3.70230582        5
Al       0.00000001       3.48024261       1.23410194        6
Al       3.01397399       1.74012392       3.70230582        7
8
Lattice="6.14972060337982 1.1716692912255837e-16 3.067372866093572e-48 -3.07486030168991 5.325814268703491 1.1452945825250179e-48 -2.3021131635688164e-48 -2.1995268223208206e-48 4.742848450098962" Properties=species:S:1:pos:R:3:tags:I:1 spacegroup="P 1" unit_cell=conventional n_minim_iter=2 stress="0.14273311986102616 -1.0806847176840064e-16 -3.852328532000544e-17 -1.0806847176840064e-16 0.14273311986102666 -2.862747370737257e-17 -3.852328532000544e-17 -2.862747370737257e-17 0.1290304063908168" pbc="T T T"
Ti       3.07486031       3.42170255       1.18571211        0
Ti      -1.42584656       4.37376107       3.55713634        1
Ti       1.42584657       4.37376107       3.55713634        2
Ti       1.64901375       0.95206386       1.18571211        3
Ti       4.50070687       0.95206386       1.18571211        4
Ti       0.00000001       1.90412238       3.55713634        5
Al       0.00000001       3.55054818       1.18571211        6
Al       3.07486031       1.77527675       3.55713634        7
8
Lattice="6.140442593121697 3.4833607952655014e-17 3.084337237930978e-48 -3.0702212965608484 5.3177792761233835 1.4666750415059702e-48 -2.290762563025414e-48 -2.1533273041127268e-48 4.757191859507702" Properties=species:S:1:pos:R:3:tags:I:1 spacegroup="P 1" unit_cell=conventional n_minim_iter=3 stress="0.16467694127995555 -1.3070174273324328e-16 -2.5389240129185053e-16 -1.3070174273324328e-16 0.16467694127995547 -1.6522280807953574e-16 -2.5389240129185053e-16 -1.6522280807953574e-16 0.16441254696398763" pbc="T T T"
Ti       3.07022130       3.41682487       1.18929796        0
Ti      -1.42394187       4.36730473       3.56789389        1
Ti       1.42394188       4.36730473       3.56789389        2
Ti       1.64627942       0.95048519       1.18929796        3
Ti       4.49416318       0.95048519       1.18929796        4
Ti       0.00000001       1.90096505       3.56789389        5
Al       0.00000001       3.54519151       1.18929796        6
Al       3.07022130       1.77259841       3.56789389        7
8
Lattice="6.139352278470728 7.49305221639509e-17 4.0082539328763747e-48 -3.069676139235364 5.316835035937526 -3.629797914409566e-48 -4.138945802306149e-48 -7.340909611530855e-48 4.75888171091975" Properties=species:S:1:pos:R:3:tags:I:1 spacegroup="P 1" unit_cell=conventional n_minim_iter=4 stress="0.1664989121066849 1.256864642235368e-16 -1.571847015325622e-18 1.256864642235368e-16 0.1664989121066874 1.0659483816703996e-17 -1.571847015325622e-18 1.0659483816703996e-17 0.16661707575151483" pbc="T T T"
Ti       3.06967614       3.41508445       1.18972043        0
Ti      -1.42270720       4.36596240       3.56916128        1
Ti       1.42270721       4.36596240       3.56916128        2
Ti       1.64696894       0.95088328       1.18972043        3
Ti       4.49238335       0.95088328       1.18972043        4
Ti       0.00000001       1.90176123       3.56916128        5
Al       0.00000001       3.54456201       1.18972043        6
Al       3.06967614       1.77228367       3.56916128        7
