8
Lattice="5.83909740415739 1.3143983658894392e-15 -7.487870456806075e-48 -2.9195487020786968 5.056806687172071 8.296634822267965e-48 4.9794753178342164e-48 -3.4959372176025465e-48 3.883032107747451" Properties=species:S:1:pos:R:3:tags:I:1 spacegroup="P 1" unit_cell=conventional n_minim_iter=1 energy=-9782.354233669506 free_energy=-9782.354233669506 pbc="T T T"
Ti       2.91954871       3.38501637       0.97075802        0
Ti      -1.47173143       4.22091406       2.91227408        1
Ti       1.47173144       4.22091406       2.91227408        2
Ti       1.44781728       0.83590275       0.97075802        3
Ti       4.39128014       0.83590275       0.97075802        4
Ti       0.00000001       1.67180044       2.91227408        5
Al       0.00000001       3.37120952       0.97075802        6
Al       2.91954871       1.68560729       2.91227408        7
8
Lattice="5.723475528863994 1.244770735949165e-15 -7.412888669553596e-48 -2.8617377644319983 4.956675205934795 7.985774481898834e-48 5.1339546468318366e-48 -3.779300473476195e-48 4.041501654278526" Properties=species:S:1:pos:R:3:tags:I:1 spacegroup="P 1" unit_cell=conventional n_minim_iter=2 stress="-0.10768890756166334 4.30823702365023e-16 -5.115379547718092e-16 4.30823702365023e-16 -0.10768890756166413 5.087157964791428e-16 -5.115379547718092e-16 5.087157964791428e-16 -0.12175145562662541" pbc="T T T"
Ti       2.86173777       3.31982958       1.01037541        0
Ti      -1.44418357       4.13825487       3.03112624        1
Ti       1.44418358       4.13825487       3.03112624        2
Ti       1.41755419       0.81843025       1.01037541        3
Ti       4.30592134       0.81843025       1.01037541        4
Ti       0.00000000       1.63685555       3.03112624        5
Al       0.00000000       3.30445510       1.01037541        6
Al       2.86173777       1.65223003       3.03112624        7
8
Lattice="5.706458846981296 1.0754574306712893e-15 -7.644251012969042e-48 -2.8532294234906495 4.941938327136258 7.546736076495068e-48 5.045835079047706e-48 -4.1433087863154396e-48 4.065641139175118" Properties=species:S:1:pos:R:3:tags:I:1 spacegroup="P 1" unit_cell=conventional n_minim_iter=3 stress="-0.08444262791072765 -4.66635193917175e-16 8.260194377827997e-17 -4.66635193917175e-16 -0.0844426279107283 -3.754960377723495e-16 8.260194377827997e-17 -3.754960377723495e-16 -0.06890672159533832" pbc="T T T"
Ti       2.85322943       3.30612950       1.01641028        0
Ti      -1.43657313       4.12403639       3.04923085        1
Ti       1.43657314       4.12403639       3.04923085        2
Ti       1.41665629       0.81791183       1.01641028        3
Ti       4.28980257       0.81791183       1.01641028        4
Ti       0.00000000       1.63581872       3.04923085        5
Al       0.00000000       3.29463050       1.01641028        6
Al       2.85322943       1.64731772       3.04923085        7
8
Lattice="5.705087835145 8.220663216069088e-16 -6.528961580240723e-48 -2.8525439175725014 4.940750996057137 1.4890172801977643e-47 7.551600433057779e-48 -4.275576979726662e-48 4.067595434023819" Properties=species:S:1:pos:R:3:tags:I:1 spacegroup="P 1" unit_cell=conventional n_minim_iter=4 stress="-0.08785123592114298 -6.369143242732118e-16 -2.5197672597388384e-16 -6.369143242732118e-16 -0.08785123592114455 -2.019184919155784e-16 -2.5197672597388384e-16 -2.019184919155784e-16 -0.07714987623614043" pbc="T T T"
Ti       2.85254392       3.29507386       1.01689886        0
Ti      -1.42734142       4.11791490       3.05069657        1
Ti       1.42734143       4.11791490       3.05069657        2
Ti       1.42520250       0.82284599       1.01689886        3
Ti       4.27988535       0.82284599       1.01689886        4
Ti       0.00000000       1.64568703       3.05069657        5
Al       0.00000000       3.29383894       1.01689886        6
Al       2.85254392       1.64692194       3.05069657        7
8
Lattice="5.711308574989151 7.539931852796136e-16 -6.181487424202245e-48 -2.855654287494577 4.946138314792506 1.5139123739397633e-47 6.686228157192078e-48 -7.272994754311819e-48 4.058739434586059" Properties=species:S:1:pos:R:3:tags:I:1 spacegroup="P 1" unit_cell=conventional n_minim_iter=5 stress="-0.0993793481466185 -4.3006487012828505e-16 9.480192369368634e-17 -4.3006487012828505e-16 -0.09937934814662033 -2.5620416306577695e-16 9.480192369368634e-17 -2.5620416306577695e-16 -0.10423538406911348" pbc="T T T"
Ti       2.85565429       3.29990140       1.01468486        0
Ti      -1.42996701       4.12302233       3.04405457        1
Ti       1.42996702       4.12302233       3.04405457        2
Ti       1.42568728       0.82312588       1.01468486        3
Ti       4.28562131       0.82312588       1.01468486        4
Ti       0.00000000       1.64624681       3.04405457        5
Al       0.00000000       3.29743049       1.01468486        6
Al       2.85565429       1.64871772       3.04405457        7
8
Lattice="5.709568987103903 7.216123092299171e-16 -7.199160636968683e-48 -2.854784493551952 4.944631787491763 1.8711543221071942e-47 6.010287628363626e-48 -3.481056304122867e-48 4.0612130397094095" Properties=species:S:1:pos:R:3:tags:I:1 spacegroup="P 1" unit_cell=conventional n_minim_iter=6 stress="-0.09579811600939016 2.0987874503400952e-16 2.8404109465317575e-16 2.0987874503400952e-16 -0.09579811600939314 4.383160961786102e-16 2.8404109465317575e-16 4.383160961786102e-16 -0.09562770928741929" pbc="T T T"
Ti       2.85478450       3.29901124       1.01530326        0
Ti      -1.42963100       4.12182399       3.04590978        1
Ti       1.42963101       4.12182399       3.04590978        2
Ti       1.42515349       0.82281770       1.01530326        3
Ti       4.28441551       0.82281770       1.01530326        4
Ti       0.00000000       1.64563045       3.04590978        5
Al       0.00000000       3.29642614       1.01530326        6
Al       2.85478450       1.64821554       3.04590978        7
