2
Lattice="2.6712200604353398 -8.486129667663565e-16 4.980079219408591e-41 -1.3356100302176692 2.313344431435608 2.307588846119715e-25 -1.8469966016650087e-40 -4.268119198190802e-25 4.278764735945453" Properties=species:S:1:pos:R:3 n_minim_iter=1 energy=-3186.826199360821 free_energy=-3186.826199360821 pbc="T T T"
Ti       0.00000000       0.00000000       0.00000000
Ti       0.00000000       1.54222962       2.13938237
2
Lattice="2.6599738024494846 -8.446471548353676e-16 4.938974984602916e-41 -1.3299869012247416 2.303604886322345 2.29787353292889e-25 -1.87498777945935e-40 -4.304286352431588e-25 4.315022098258712" Properties=species:S:1:pos:R:3 n_minim_iter=2 stress="-0.1448566515187066 3.6388847778041455e-17 -1.6274664801701074e-18 3.6388847778041455e-17 -0.1448566515187055 1.7007102602552103e-19 -1.6274664801701074e-18 1.7007102602552103e-19 -0.145642895795422" pbc="T T T"
Ti       0.00000000      -0.00000000      -0.00000000
Ti       0.00000000       1.53573659       2.15751105
