2
Lattice="2.9819483003380585 -9.360655620437188e-16 6.023173107238887e-41 -1.4909741501690283 2.582442980864588 2.5760178801758166e-25 -1.8343761207425148e-40 -4.8779750392525855e-25 4.890141678710213" Properties=species:S:1:pos:R:3 n_minim_iter=1 energy=-3187.0400355476318 free_energy=-3187.0400355476318 pbc="T T T"
Ti       0.00000000       0.00000000       0.00000000
Ti       0.00000000       1.72162865       2.44507084
