2
Lattice="3.217637266967096 0.0 0.0 0.0 3.2176372669670967 0.0 0.0 0.0 3.217637266967096" Properties=species:S:1:pos:R:3 Minim_Constant_Volume=F n_minim_iter=1 stress="0.022275552640112564 5.419852363381807e-18 5.3256987932961494e-20 5.419852363381807e-18 0.02227555264011259 3.200631608785544e-18 5.3256987932961494e-20 3.200631608785544e-18 0.022275552640112543" pbc="T T T"
Ti       0.00000000       0.00000000       0.00000000
Ti       1.60881863       1.60881863       1.60881863
