2
Lattice="3.112063992793871 0.0 0.0 0.0 3.112063992793871 0.0 0.0 0.0 3.112063992793871" Properties=species:S:1:pos:R:3 Minim_Constant_Volume=F n_minim_iter=1 stress="-0.044682654233825295 1.2898552679075667e-18 -3.3675361489034367e-18 1.2898552679075667e-18 -0.04468265423382526 -3.2374809858603754e-18 -3.3675361489034367e-18 -3.2374809858603754e-18 -0.044682654233825295" pbc="T T T"
Ti       0.00000000       0.00000000       0.00000000
Ti       1.55603200       1.55603200       1.55603200
