2
Lattice="3.1918950660449696 0.0 0.0 0.0 3.1918950660449705 0.0 0.0 0.0 3.1918950660449696" Properties=species:S:1:pos:R:3 Minim_Constant_Volume=F n_minim_iter=1 stress="0.023755882250609775 5.9568609430010294e-18 -5.052666114736141e-20 5.9568609430010294e-18 0.0237558822506097 -5.3343860146425734e-20 -5.052666114736141e-20 -5.3343860146425734e-20 0.023755882250609758" pbc="T T T"
Ti       0.00000000       0.00000000       0.00000000
Ti       1.59594753       1.59594753       1.59594753
