1
Lattice="4.873939384115881 -0.008538556692204997 -3.260219484178427e-10 0.3288062234783667 4.862843252089064 -9.826762261255227e-10 -2.601372803573141 -2.4271523470404035 3.3312383655440447" Properties=species:S:1:pos:R:3:spacegroup_kinds:I:1 spacegroup="P 1" unit_cell=conventional occupancy="_JSON {\"0\": {\"In\": 1}}" n_minim_iter=5 pbc="T T T"
In       0.00000000       0.00000000       0.00000000        0
