14
Lattice="4.11429 -1.25593148309177e-18 7.908627439116531e-35 -0.12335538002055892 4.407123979730998 -2.7751754058602965e-16 -2.094464034596031e-31 9.994330125541034e-16 15.871520000000006" Properties=species:S:1:pos:R:3 unique_starting_index=0 config_type=initial n_minim_iter=1 pbc="T T T"
Si       0.99445531       1.13091737      12.47896990
Si       1.00101200       1.07264462       4.54320990
Si       2.99647931       3.27620661       3.39255010
Si       2.98992262       3.33447936      11.32831010
Si       3.28904654       1.14831185       5.58327696
Si       2.82071077       1.05525014      13.51903696
Si       0.70188808       3.25881213      10.28824304
Si       1.17022385       3.35187384       2.35248304
Si       1.73569007       1.10395371       5.96421883
Si       0.25977724       1.09960828      13.89997883
Si       2.25524455       3.30317027       9.90730117
Si       3.73115738       3.30751570       1.97154117
Si       2.05714500       0.00000000      -0.00000000
Si      -0.06167769       2.20356199       7.93576000
14
Lattice="4.161687742012638 -0.0015985789778950317 1.0066286050011139e-19 -0.1264888252140336 4.410264229328581 -2.7771528277552606e-16 1.3752255419106994e-31 1.0087929369573637e-15 16.020160504664766" Properties=species:S:1:pos:R:3 unique_starting_index=0 config_type=initial n_minim_iter=2 pbc="T T T"
Si       1.00501758       1.13145537      12.59491989
Si       1.01258187       1.07287745       4.58483964
Si       3.03018133       3.27721028       3.42524061
Si       3.02261704       3.33578820      11.43532086
Si       3.32647727       1.14781278       5.63562792
Si       2.85280993       1.05492147      13.64570817
Si       0.70872165       3.26085287      10.38453258
Si       1.18238899       3.35374418       2.37445233
Si       1.75480629       1.10409964       6.02149687
Si       0.26279317       1.10023318      14.03157712
Si       2.28039263       3.30456601       9.99866363
Si       3.77240575       3.30843247       1.98858338
Si       2.08084387      -0.00079929      -0.00000000
Si      -0.06324441       2.20513211       8.01008025
14
Lattice="4.200869270344463 -0.0025076199017196542 1.5790536210234483e-19 -0.12863731459400005 4.419901334642826 -2.7832213336051237e-16 -6.280693102132834e-31 1.017933662927934e-15 16.165320023346318" Properties=species:S:1:pos:R:3 unique_starting_index=0 config_type=initial n_minim_iter=3 pbc="T T T"
Si       1.01405047       1.13380371      12.70839647
Si       1.02206551       1.07489315       4.62573645
Si       3.05818149       3.28359001       3.45692356
Si       3.05016645       3.34250056      11.53958357
Si       3.35770530       1.14955344       5.68666586
Si       2.87927995       1.05663580      13.76932587
Si       0.71452666       3.26784028      10.47865417
Si       1.19295201       3.36075792       2.39599415
Si       1.77072188       1.10618257       6.07736744
Si       0.26539410       1.10251429      14.16002745
Si       2.30151008       3.31121115      10.08795258
Si       3.80683786       3.31487943       2.00529257
Si       2.10043464      -0.00125381      -0.00000000
Si      -0.06431866       2.20995067       8.08266001
14
Lattice="12.087357254940635 -0.06956097372624777 4.3802694090586565e-18 -0.4369172768545369 6.930739275700746 -4.364301360810326e-16 9.348468008582439e-28 3.157282567783341e-15 50.13930177441428" Properties=species:S:1:pos:R:3 unique_starting_index=0 config_type=initial n_minim_iter=4 pbc="T T T"
Si       2.89399507       1.77680450      39.24100070
Si       2.93122492       1.65378466      14.17134981
Si       8.75644491       5.08437381      10.89830108
Si       8.71921506       5.20739365      35.96795196
Si       9.72764507       1.74085868      17.61462776
Si       8.18493218       1.62016949      42.68427865
Si       1.92279491       5.12031962      32.52467402
Si       3.46550780       5.24100881       7.45502313
Si       4.97452223       1.72022908      19.31014843
Si       0.85069776       1.71036007      44.37979932
Si       6.67591775       5.14094922      30.82915334
Si      10.79974222       5.15081823       5.75950246
Si       6.04367863      -0.03478049      -0.00000000
Si      -0.21845864       3.46536964      25.06965089
