8
Lattice="5.669978843397952 1.795892936867024e-16 2.0352358472951974e-48 -2.834989421698976 4.910345717302936 -6.736744027439893e-48 -2.023322982930044e-48 6.565223452422932e-48 5.636790705028405" Properties=species:S:1:pos:R:3:tags:I:1 spacegroup="P 1" unit_cell=conventional n_minim_iter=1 energy=-9780.836748324868 free_energy=-9780.836748324868 pbc="T T T"
Ti       2.83498943       3.31760968       1.40919767        0
Ti      -1.45563529       4.11398016       4.22759303        1
Ti       1.45563530       4.11398016       4.22759303        2
Ti       1.37935413       0.79637539       1.40919767        3
Ti       4.29062472       0.79637539       1.40919767        4
Ti       0.00000000       1.59274587       4.22759303        5
Al       0.00000000       3.27356873       1.40919767        6
Al       2.83498943       1.63678682       4.22759303        7
8
Lattice="5.649613508555366 1.7270224486501753e-16 2.134268677687097e-48 -2.824806754277683 4.892708819972681 -6.883135397949327e-48 -2.0803872215726745e-48 6.407521496527758e-48 5.677502174134048" Properties=species:S:1:pos:R:3:tags:I:1 spacegroup="P 1" unit_cell=conventional n_minim_iter=2 stress="0.252982220721261 -1.2885096234262993e-16 1.8725747203282684e-17 -1.2885096234262993e-16 0.25298222072125953 -6.328564624349379e-17 1.8725747203282684e-17 -6.328564624349379e-17 0.24607367309372158" pbc="T T T"
Ti       2.82480676       3.30594881       1.41937554        0
Ti      -1.45062803       4.09933126       4.25812663        1
Ti       1.45062804       4.09933126       4.25812663        2
Ti       1.37417873       0.79338735       1.41937554        3
Ti       4.27543479       0.79338735       1.41937554        4
Ti       0.00000000       1.58676981       4.25812663        5
Al       0.00000000       3.26181078       1.41937554        6
Al       2.82480676       1.63090784       4.25812663        7
8
Lattice="5.648037931685721 1.7442289397840327e-16 1.7287274482668995e-48 -2.8240189658428605 4.891344330377953 -7.043843715506428e-48 -2.403732771897497e-48 6.596075297750738e-48 5.680670208381503" Properties=species:S:1:pos:R:3:tags:I:1 spacegroup="P 1" unit_cell=conventional n_minim_iter=3 stress="0.24623253308163925 9.613628776636898e-16 3.811898493394189e-17 9.613628776636898e-16 0.24623253308163867 -1.4284223263863705e-17 3.811898493394189e-17 -1.4284223263863705e-17 0.24542788272286453" pbc="T T T"
Ti       2.82401897       3.30904752       1.42016755        0
Ti      -1.45370548       4.10019837       4.26050265        1
Ti       1.45370549       4.10019837       4.26050265        2
Ti       1.37031348       0.79115575       1.42016755        3
Ti       4.27772446       0.79115575       1.42016755        4
Ti       0.00000000       1.58230660       4.26050265        5
Al       0.00000000       3.26090112       1.42016755        6
Al       2.82401897       1.63045301       4.26050265        7
8
Lattice="5.647824932183168 1.6203900578859067e-16 1.6675485213196956e-48 -2.823912466091584 4.891159867397749 -7.125194945519334e-48 -2.3841453823371056e-48 6.537539693113977e-48 5.68109869288992" Properties=species:S:1:pos:R:3:tags:I:1 spacegroup="P 1" unit_cell=conventional n_minim_iter=4 stress="0.24512883986184014 -8.06973594508848e-16 5.20578073308158e-17 -8.06973594508848e-16 0.24512883986184109 -1.3042771324930175e-16 5.20578073308158e-17 -1.3042771324930175e-16 0.24497961556917736" pbc="T T T"
Ti       2.82391247       3.30990072       1.42027467        0
Ti      -1.45449763       4.10053274       4.26082402        1
Ti       1.45449764       4.10053274       4.26082402        2
Ti       1.36941484       0.79063692       1.42027467        3
Ti       4.27841010       0.79063692       1.42027467        4
Ti       0.00000000       1.58126894       4.26082402        5
Al       0.00000000       3.26077814       1.42027467        6
Al       2.82391247       1.63039152       4.26082402        7
