8
Lattice="5.594268719442182 7.744334965262568e-17 3.8717277545504954e-48 -2.797134359721091 4.844778826633569 -8.217727824063909e-48 -3.089086813650925e-48 5.787395953957503e-48 4.4634289466602795" Properties=species:S:1:pos:R:3:tags:I:1 spacegroup="P 1" unit_cell=conventional n_minim_iter=1 energy=-9785.907436235533 free_energy=-9785.907436235533 pbc="T T T"
Ti       2.79713436       3.23188483       1.11585723        0
Ti      -1.40032298       4.03833425       3.34757171        1
Ti       1.40032299       4.03833425       3.34757171        2
Ti       1.39681138       0.80645427       1.11585723        3
Ti       4.19745735       0.80645427       1.11585723        4
Ti       0.00000000       1.61290370       3.34757171        5
Al       0.00000000       3.22985740       1.11585723        6
Al       2.79713436       1.61493112       3.34757171        7
8
Lattice="5.614013147240058 8.504545777239123e-17 3.919190469234501e-48 -2.807006573620029 4.861878002689719 -8.211073705930361e-48 -3.058267286383951e-48 5.755457973007082e-48 4.4320884863233445" Properties=species:S:1:pos:R:3:tags:I:1 spacegroup="P 1" unit_cell=conventional n_minim_iter=2 stress="-0.41139689237111066 -7.931572207674658e-16 5.848583094470909e-17 -7.931572207674658e-16 -0.41139689237111343 1.0910359833748001e-16 5.848583094470909e-17 1.0910359833748001e-16 -0.4454614178883416" pbc="T T T"
Ti       2.80700658       3.26261547       1.10802212        0
Ti      -1.42200037       4.06224917       3.32406636        1
Ti       1.42200038       4.06224917       3.32406636        2
Ti       1.38500620       0.79963857       1.10802212        3
Ti       4.22900695       0.79963857       1.10802212        4
Ti       0.00000000       1.59927227       3.32406636        5
Al       0.00000000       3.24125687       1.10802212        6
Al       2.80700658       1.62063087       3.32406636        7
8
Lattice="5.573500592006344 4.238759920416642e-17 3.860799485136458e-48 -2.786750296003172 4.8267931006851015 -8.006812798424924e-48 -3.0055188500394534e-48 5.912570468946032e-48 4.496754417706742" Properties=species:S:1:pos:R:3:tags:I:1 spacegroup="P 1" unit_cell=conventional n_minim_iter=3 stress="-0.4102760311972695 6.628115196810257e-16 -1.1861512310070502e-16 6.628115196810257e-16 -0.4102760311972692 -3.781330414246053e-17 -1.1861512310070502e-16 -3.781330414246053e-17 -0.4141313723677791" pbc="T T T"
Ti       2.78675030       3.24156517       1.12418860        0
Ti      -1.41389845       4.03418155       3.37256581        1
Ti       1.41389846       4.03418155       3.37256581        2
Ti       1.37285185       0.79262121       1.12418860        3
Ti       4.20064875       0.79262121       1.12418860        4
Ti       0.00000000       1.58523760       3.37256581        5
Al       0.00000000       3.21786690       1.12418860        6
Al       2.78675030       1.60893586       3.37256581        7
8
Lattice="5.573460197869477 3.5417799388111225e-17 3.478699860553292e-48 -2.7867300989347386 4.826758118336411 -7.39120209261299e-48 -2.974054619290055e-48 5.933023575584173e-48 4.496819599179356" Properties=species:S:1:pos:R:3:tags:I:1 spacegroup="P 1" unit_cell=conventional n_minim_iter=4 stress="-0.42266398451562387 5.62812981997186e-16 4.900286400804023e-17 5.62812981997186e-16 -0.42266398451562165 1.0846658076914767e-16 4.900286400804023e-17 1.0846658076914767e-16 -0.42218819557547604" pbc="T T T"
Ti       2.78673010       3.23774174       1.12420490        0
Ti      -1.41059736       4.03225234       3.37261470        1
Ti       1.41059737       4.03225234       3.37261470        2
Ti       1.37613274       0.79451544       1.12420490        3
Ti       4.19732747       0.79451544       1.12420490        4
Ti       0.00000000       1.58902604       3.37261470        5
Al       0.00000000       3.21784358       1.12420490        6
Al       2.78673010       1.60892420       3.37261470        7
8
Lattice="5.573595351403206 2.658438711680188e-17 3.582261134541718e-48 -2.786797675701603 4.826875164730031 -9.024041070160137e-48 -2.646745143548201e-48 4.240920069397379e-48 4.496601516002414" Properties=species:S:1:pos:R:3:tags:I:1 spacegroup="P 1" unit_cell=conventional n_minim_iter=5 stress="-0.4216408624184456 -6.577127288968806e-16 8.285284228996302e-18 -6.577127288968806e-16 -0.4216408624184491 -2.301446488171134e-16 8.285284228996302e-18 -2.301446488171134e-16 -0.42166485355900324" pbc="T T T"
Ti       2.78679768       3.23814220       1.12415038        0
Ti      -1.41091038       4.03251110       3.37245113        1
Ti       1.41091039       4.03251110       3.37245113        2
Ti       1.37588729       0.79437373       1.12415038        3
Ti       4.19770807       0.79437373       1.12415038        4
Ti       0.00000000       1.58874262       3.37245113        5
Al       0.00000000       3.21792161       1.12415038        6
Al       2.78679768       1.60896322       3.37245113        7
