8
Lattice="5.320982990874063 2.842091648014147e-16 3.305685463284198e-48 -2.660491495437032 4.60810644320184 -2.6806803197561806e-48 -2.7337160652830598e-48 9.81489688229276e-49 4.4003148051475" Properties=species:S:1:pos:R:3:tags:I:1 spacegroup="P 1" unit_cell=conventional n_minim_iter=1 energy=-9784.597208085897 free_energy=-9784.597208085897 pbc="T T T"
Ti       2.66049150       3.08882146       1.10007870        0
Ti      -1.34474811       3.84846626       3.30023610        1
Ti       1.34474812       3.84846626       3.30023610        2
Ti       1.31574339       0.75964941       1.10007870        3
Ti       4.00523961       0.75964941       1.10007870        4
Ti       0.00000000       1.51929421       3.30023610        5
Al       0.00000000       3.07207557       1.10007870        6
Al       2.66049150       1.53604009       3.30023610        7
8
Lattice="5.343603219000697 2.9780974531908186e-16 3.350453259078008e-48 -2.6718016095003487 4.627696135398907 -2.8984663358025894e-48 -2.6078168105868296e-48 9.882199328061904e-49 4.36313934678936" Properties=species:S:1:pos:R:3:tags:I:1 spacegroup="P 1" unit_cell=conventional n_minim_iter=2 stress="0.14496312938325095 -6.458798922917383e-16 -9.458240579161054e-18 -6.458798922917383e-16 0.14496312938325023 -5.891197003211472e-17 -9.458240579161054e-18 -5.891197003211472e-17 0.1445875158253806" pbc="T T T"
Ti       2.67180161       3.10000747       1.09078483        0
Ti      -1.34878040       3.86385412       3.27235451        1
Ti       1.34878041       3.86385412       3.27235451        2
Ti       1.32302121       0.76385128       1.09078483        3
Ti       4.02058202       0.76385128       1.09078483        4
Ti       0.00000000       1.52769793       3.27235451        5
Al       0.00000000       3.08513539       1.09078483        6
Al       2.67180161       1.54257001       3.27235451        7
8
Lattice="5.329327706641215 2.721772022524946e-16 3.236523065400829e-48 -2.664663853320608 4.615333179043555 -3.827109780933965e-48 -9.965616244800341e-49 1.7323966437829778e-48 4.386545477920007" Properties=species:S:1:pos:R:3:tags:I:1 spacegroup="P 1" unit_cell=conventional n_minim_iter=3 stress="0.1647251798800915 -1.4654099687942467e-15 -1.558755512867614e-17 -1.4654099687942467e-15 0.1647251798800963 -1.096074846103462e-16 -1.558755512867614e-17 -1.096074846103462e-16 0.16205344205176314" pbc="T T T"
Ti       2.66466386       3.07316389       1.09663637        0
Ti      -1.32910207       3.84425085       3.28990911        1
Ti       1.32910208       3.84425085       3.28990911        2
Ti       1.33556178       0.77109157       1.09663637        3
Ti       3.99376593       0.77109157       1.09663637        4
Ti       0.00000000       1.54217852       3.28990911        5
Al       0.00000000       3.07689341       1.09663637        6
Al       2.66466386       1.53844901       3.28990911        7
8
Lattice="5.3264855576449115 2.6650057840847084e-16 3.02977898204869e-48 -2.663242778822456 4.612871805811419 -5.481908276059255e-48 -1.1701366188620321e-48 1.2396907081816033e-48 4.391227943260793" Properties=species:S:1:pos:R:3:tags:I:1 spacegroup="P 1" unit_cell=conventional n_minim_iter=4 stress="0.16780046285260838 3.0170866659968868e-15 -1.458143617105535e-16 3.0170866659968868e-15 0.167800462852613 2.6608517576657242e-17 -1.458143617105535e-16 2.6608517576657242e-17 0.1686092737228725" pbc="T T T"
Ti       2.66324278       3.06860917       1.09780698        0
Ti      -1.32586810       3.84074279       3.29342096        1
Ti       1.32586811       3.84074279       3.29342096        2
Ti       1.33737468       0.77213825       1.09780698        3
Ti       3.98911089       0.77213825       1.09780698        4
Ti       0.00000000       1.54427187       3.29342096        5
Al       0.00000000       3.07525249       1.09780698        6
Al       2.66324278       1.53762855       3.29342096        7
8
Lattice="5.326490378733345 2.638951139862161e-16 3.289140720123608e-48 -2.663245189366673 4.612875980996476 -6.310856782194312e-48 -2.5630287639427538e-48 -3.5237206770231093e-48 4.391219994128374" Properties=species:S:1:pos:R:3:tags:I:1 spacegroup="P 1" unit_cell=conventional n_minim_iter=5 stress="0.16911916764317395 -1.2052451405406639e-15 -1.5056830200699485e-16 -1.2052451405406639e-15 0.169119167643165 -8.438941812508996e-18 -1.5056830200699485e-16 -8.438941812508996e-18 0.16908434404603878" pbc="T T T"
Ti       2.66324519       3.06812412       1.09780500        0
Ti      -1.32544684       3.84050236       3.29341499        1
Ti       1.32544685       3.84050236       3.29341499        2
Ti       1.33779835       0.77238285       1.09780500        3
Ti       3.98869203       0.77238285       1.09780500        4
Ti       0.00000000       1.54476109       3.29341499        5
Al       0.00000000       3.07525527       1.09780500        6
Al       2.66324519       1.53762994       3.29341499        7
