4
Lattice="4.097599229036533 0.0 0.0 0.0 4.097599229036533 0.0 0.0 0.0 4.097599229036533" Properties=species:S:1:pos:R:3 n_minim_iter=1 energy=-439.10174509245076 free_energy=-439.10174509245076 pbc="T T T"
Al       0.00000000       0.00000000       0.00000000
Al       2.04879961       2.04879961       0.00000000
Al       2.04879961       0.00000000       2.04879961
Al       0.00000000       2.04879961       2.04879961
