4
Lattice="4.308869380063768 0.0 0.0 0.0 4.308869380063768 0.0 0.0 0.0 4.308869380063768" Properties=species:S:1:pos:R:3 n_minim_iter=1 stress="0.09236881522910857 -2.8012484682212935e-18 1.5407439555097883e-34 -2.8012484682212935e-18 0.09236881522910856 2.255140518769849e-18 1.5407439555097883e-34 2.255140518769849e-18 0.09236881522910857" pbc="T T T"
Al       0.00000000       0.00000000       0.00000000
Al       2.15443469       2.15443469       0.00000000
Al       2.15443469       0.00000000       2.15443469
Al       0.00000000       2.15443469       2.15443469
