4
Lattice="3.6741811000284557 0.0 0.0 0.0 3.6741811000284557 0.0 0.0 0.0 3.6741811000284557" Properties=species:S:1:pos:R:3 n_minim_iter=1 stress="-0.38007689296998715 7.31121671543554e-18 4.4767057444562755e-18 7.31121671543554e-18 -0.3800768929699871 -1.2934189349745842e-18 4.4767057444562755e-18 -1.2934189349745842e-18 -0.38007689296998715" pbc="T T T"
Al       0.00000000       0.00000000       0.00000000
Al       1.83709055       1.83709055       0.00000000
Al       1.83709055       0.00000000       1.83709055
Al       0.00000000       1.83709055       1.83709055
