2
Lattice="3.0199668478754074 -9.307088160711578e-16 -9.258577066058691e-41 -1.5099834239377026 2.6153680088469184 2.608860990910978e-25 -4.173294803277696e-43 -4.958309864138802e-25 4.9706768746197385" Properties=species:S:1:pos:R:3 n_minim_iter=1 energy=-3186.927235174125 free_energy=-3186.927235174125 pbc="T T T"
Ti       0.00000000       0.00000000       0.00000000
Ti       0.00000000       1.74357867       2.48533844
