14
Lattice="6.783209794759033 1.216552013587458 0.3458024910613496 -0.16508627259289244 1.3118687040892014 0.1494975022263906 -6.909606345038337 -1.3911473744133604 -0.08673169254790807" Properties=species:S:1:pos:R:3 unique_starting_index=10 config_type=initial n_minim_iter=1 energy=-3.617029528255254e+16 free_energy=-3.617029528255254e+16 pbc="T T T"
Si       1.48882813       0.86456116       1.07686922
Si      -1.22473925      -0.06270026       0.49751127
Si       1.64760510       0.19119911       0.53589728
Si       1.54317421       0.68336358       1.76424622
Si      -3.49804010      -0.44669067      -0.66259052
Si      -0.65807618       0.65516611      -0.34230337
Si      -3.65681707       0.22667138      -0.12161858
Si       3.19213389       2.43752299      -1.11373832
Si       3.13378467       1.37349209      -0.29708608
Si      -4.17380147      -0.53010054      -0.30853844
Si       1.60152343       1.74739447       0.94759398
Si      -4.61862030      -0.26858099       0.37701465
Si       2.20281935       0.41429005       0.33929125
Si       2.69757502       1.39472781       0.16171915
14
Lattice="6.51743441811446 1.1707357497951234 0.3311289521631594 -0.15837058020573144 1.2609711022443388 0.14354877668059632 -6.63895192224037 -1.338623012078165 -0.08207957370841634" Properties=species:S:1:pos:R:3 unique_starting_index=10 config_type=initial n_minim_iter=2 stress="1.514567524204818e+17 -6069402747787770.0 -5.042921283375151e+16 -6069402747787770.0 2.4622694722610237e+17 -2116509978853731.5 -5.042921283375151e+16 -2116509978853731.5 2.1882449734416646e+17" pbc="T T T"
Si       1.43210662       0.83137821       1.03563752
Si      -1.17505438      -0.06057785       0.47907314
Si       1.58532993       0.18414823       0.51605092
Si       1.48297361       0.65673325       1.69542167
Si      -3.36251941      -0.43016471      -0.63718411
Si      -0.63384091       0.62967861      -0.32966911
Si      -3.51574272       0.21706527      -0.11759750
Si       3.06719494       2.34407437      -1.07133991
Si       3.00991651       1.32086208      -0.28691015
Si      -4.01023546      -0.51035461      -0.29577366
Si       1.54025204       1.67994553       0.91099191
Si      -4.43761175      -0.25916764       0.36309812
Si       2.11690829       0.39884458       0.32603086
Si       2.59163084       1.34099193       0.15450213
14
Lattice="6.2862729974969085 1.1609000897227104 0.20385188971358612 -0.15787468010439332 1.2632141828104682 0.1439486035662781 -6.408047528207276 -1.3291253071783211 0.04553323482646502" Properties=species:S:1:pos:R:3 unique_starting_index=10 config_type=initial n_minim_iter=3 stress="7146046313424687.0 -1.7149884382950874e+16 -1.3611376052517488e+17 -1.7149884382950874e+16 2.650253209090515e+17 -5630492679098802.0 -1.3611376052517488e+17 -5630492679098802.0 1.909526872732106e+17" pbc="T T T"
Si       1.36111759       0.82927300       0.99848571
Si      -1.14357734      -0.05944124       0.49702895
Si       1.52021075       0.18098246       0.48115651
Si       1.39902477       0.65307189       1.65180730
Si      -3.23375364      -0.42442521      -0.56740954
Si      -0.60728419       0.63251424      -0.31533791
Si      -3.39284680       0.22386533      -0.05008034
Si       2.97851203       2.34411539      -1.12231577
Si       2.91087854       1.31832006      -0.34227387
Si      -3.86660144      -0.50378963      -0.21677681
Si       1.46665825       1.67886722       0.87176541
Si      -4.29230761      -0.25226267       0.44400109
Si       2.03697817       0.39565725       0.28256885
Si       2.49843331       1.33831585       0.10297408
14
Lattice="6.324341336646185 1.394758066832836 0.14724717343134847 -0.11322787547455337 1.2600249578632443 0.1239237420991446 -6.453552807112203 -1.5721941266820894 0.10602727464854843" Properties=species:S:1:pos:R:3 unique_starting_index=10 config_type=initial n_minim_iter=4 stress="5662094407973065.0 -1.1217282272165494e+16 -1.3800574972893016e+17 -1.1217282272165494e+16 2.6127824157164416e+17 -2486250182805039.5 -1.3800574972893016e+17 -2486250182805039.5 1.8863622394460787e+17" pbc="T T T"
Si       1.38816277       0.87398540       0.99002524
Si      -1.12970601      -0.12530858       0.49639975
Si       1.52955074       0.22684815       0.48189745
Si       1.42700183       0.66371197       1.62760830
Si      -3.24798621      -0.54381029      -0.55398256
Si      -0.60090596       0.63291975      -0.31363152
Si      -3.38937418       0.10332696      -0.04585477
Si       3.05349966       2.49868223      -1.17366915
Si       2.95117574       1.44232721      -0.38510945
Si      -3.88304069      -0.64324149      -0.18121899
Si       1.52932575       1.72006699       0.83904860
Si      -4.30112409      -0.42134147       0.47001450
Si       2.04690098       0.48112236       0.26976684
Si       2.54682839       1.42124688       0.06024857
14
Lattice="6.2992292293778505 1.4721794920901838 0.12526916476727426 -0.09707384308831613 1.2676380791884716 0.07646544552381838 -6.428842751846276 -1.6623117197029993 0.13418092805116485" Properties=species:S:1:pos:R:3 unique_starting_index=10 config_type=initial n_minim_iter=5 stress="3938718071407402.0 -1.012648674005796e+16 -1.3633903830353038e+17 -1.012648674005796e+16 2.598549712868796e+17 -6200769498115164.0 -1.3633903830353038e+17 -6200769498115164.0 1.8953941559789606e+17" pbc="T T T"
Si       1.39444437       0.87027589       0.98017026
Si      -1.11165198      -0.17126129       0.48803759
Si       1.52924093       0.22201589       0.49511377
Si       1.44400322       0.60662028       1.60125124
Si      -3.23647734      -0.57279054      -0.56496333
Si      -0.60076747       0.65887887      -0.33228075
Si      -3.37127390       0.07546946      -0.07990684
Si       3.04573272       2.62081486      -1.24375979
Si       2.93938089       1.51122605      -0.42826819
Si      -3.86773704      -0.68226127      -0.17105414
Si       1.55035505       1.71620910       0.78575964
Si      -4.27352516      -0.49243288       0.46099191
Si       2.03963574       0.51200284       0.26859238
Si       2.54717404       1.44779423       0.01243362
14
Lattice="6.375553459572595 1.4685120103580747 0.07148482112917771 -0.10458812836653865 1.2939412020847394 0.05772611887908291 -6.507191982706649 -1.6648182573256847 0.1830673112258302" Properties=species:S:1:pos:R:3 unique_starting_index=10 config_type=initial n_minim_iter=6 stress="8710545476029999.0 -1.3275946812237246e+16 -1.412833845156201e+17 -1.3275946812237246e+16 2.6152270763496794e+17 -8560096772283937.0 -1.412833845156201e+17 -8560096772283937.0 1.827243687389372e+17" pbc="T T T"
Si       1.40040729       0.89051937       0.95605527
Si      -1.11735807      -0.20072342       0.45848459
Si       1.54903230       0.20527223       0.49232447
Si       1.45422293       0.56825398       1.51701833
Si      -3.27019454      -0.58165084      -0.54880369
Si      -0.62079065       0.70589819      -0.30578514
Si      -3.41881954       0.10359630      -0.08507289
Si       3.07859368       2.69937401      -1.23510794
Si       2.96598547       1.55191143      -0.45320155
Si      -3.92210656      -0.66750001      -0.12911050
Si       1.56683114       1.71571656       0.73511194
Si      -4.32323414      -0.49214347       0.46487726
Si       2.06272868       0.53541729       0.25276562
Si       2.57467606       1.43826950      -0.02858135
14
Lattice="6.300052614987045 1.4728626450330804 0.14854627855211508 -0.10494786582165665 1.320981416536009 0.055518087291130336 -6.426744808507505 -1.6721642663596168 0.10265092193226023" Properties=species:S:1:pos:R:3 unique_starting_index=10 config_type=initial n_minim_iter=7 stress="7914570585718486.0 -1.3898594729445052e+16 -1.3981940699540238e+17 -1.3898594729445052e+16 2.6483544245089405e+17 -8114832273426055.0 -1.3981940699540238e+17 -8114832273426055.0 1.8704449457661142e+17" pbc="T T T"
Si       1.38705601       0.92660429       0.99045089
Si      -1.08888676      -0.22721114       0.42047532
Si       1.53600582       0.19627223       0.53071728
Si       1.45131488       0.54981588       1.50195515
Si      -3.23081836      -0.60303632      -0.60915310
Si      -0.62818339       0.75008074      -0.29037473
Si      -3.37976816       0.12729574      -0.14941948
Si       3.02671972       2.76689777      -1.16779018
Si       2.91915384       1.59333937      -0.41665757
Si      -3.88426616      -0.65759128      -0.16735822
Si       1.55888076       1.72337428       0.75082253
Si      -4.25954879      -0.49170340       0.40010973
Si       2.04021988       0.56565022       0.28466422
Si       2.54276259       1.43008201      -0.00601734
14
Lattice="6.24840556564062 1.449616607307499 0.2087901010012196 -0.10978318583689638 1.3378960292670878 0.0533730893614714 -6.3708568707573106 -1.6502992471103208 0.03982562429848244" Properties=species:S:1:pos:R:3 unique_starting_index=10 config_type=initial n_minim_iter=8 stress="7208664111688593.0 -1.5504622785216812e+16 -1.391777411351446e+17 -1.5504622785216812e+16 2.6541825587708573e+17 -8070474207013517.0 -1.391777411351446e+17 -8070474207013517.0 1.8993755943497037e+17" pbc="T T T"
Si       1.36776860       0.94793541       1.01752474
Si      -1.06389603      -0.25204187       0.38943834
Si       1.51877780       0.18370878       0.56319961
Si       1.45813348       0.52275878       1.49080977
Si      -3.19588433      -0.60794150      -0.65676886
Si      -0.64176840       0.79271842      -0.27729818
Si      -3.34689353       0.15628513      -0.20244373
Si       2.97482447       2.80543041      -1.11650642
Si       2.88888121       1.61392411      -0.38525963
Si      -3.85998752      -0.63069861      -0.19770593
Si       1.54407674       1.71426508       0.75956298
Si      -4.21653378      -0.47892408       0.34967171
Si       2.02160096       0.58127453       0.31115652
Si       2.52114017       1.40901863       0.00977374
14
Lattice="6.200274354798091 1.4063224596223727 0.2594147832847473 -0.11787918639820309 1.3494120999499657 0.0522880759382542 -6.318653802155679 -1.6072893978706078 -0.012292535880346204" Properties=species:S:1:pos:R:3 unique_starting_index=10 config_type=initial n_minim_iter=9 stress="5483509642015098.0 -1.680721333454821e+16 -1.3806323577922384e+17 -1.680721333454821e+16 2.6554921364212317e+17 -9337523216026076.0 -1.3806323577922384e+17 -9337523216026076.0 1.9165326497120128e+17" pbc="T T T"
Si       1.34633161       0.96230018       1.04618676
Si      -1.03815347      -0.27311977       0.36226103
Si       1.50351554       0.16650810       0.59471721
Si       1.46219669       0.48886466       1.48232177
Si      -3.16237876      -0.60327212      -0.70114103
Si      -0.65951423       0.83311476      -0.26433754
Si      -3.31956268       0.19251996      -0.24967148
Si       2.92253078       2.82686489      -1.07269543
Si       2.85830121       1.62206565      -0.35999382
Si      -3.83828453      -0.59376812      -0.22177632
Si       1.52642626       1.69366390       0.76962016
Si      -4.17803698      -0.45352628       0.30740727
Si       2.00311857       0.59125735       0.33531058
Si       2.49948809       1.37506011       0.02202769
14
Lattice="6.152202401869021 1.360050986189672 0.3078096341506059 -0.12623253113127098 1.3578743329517529 0.054707301357836 -6.266722312060101 -1.5602281753963854 -0.06198354520750954" Properties=species:S:1:pos:R:3 unique_starting_index=10 config_type=initial n_minim_iter=10 stress="3815506258485147.5 -1.8745999882043416e+16 -1.3793784607836134e+17 -1.8745999882043416e+16 2.6736899493231357e+17 -9588702544403608.0 -1.3793784607836134e+17 -9588702544403608.0 1.9438995345361018e+17" pbc="T T T"
Si       1.32381234       0.98224805       1.08184415
Si      -1.01783323      -0.28848916       0.33235803
Si       1.48707514       0.14895522       0.62820724
Si       1.47109414       0.45289645       1.47734242
Si      -3.12831720      -0.60412083      -0.74902695
Si      -0.67215172       0.86679358      -0.24536692
Si      -3.29158000       0.22917201      -0.29539004
Si       2.86489078       2.84333328      -1.02783437
Si       2.82725465       1.62676073      -0.33285175
Si      -3.81747345      -0.55489231      -0.24217770
Si       1.50873027       1.66946900       0.78235979
Si      -4.13923381      -0.42703145       0.26718526
Si       1.98588605       0.60464155       0.36171896
Si       2.47633140       1.33371384       0.03308179
14
Lattice="6.107170207821405 1.3172128225272923 0.3541834884536772 -0.13399481089033294 1.3662352567822853 0.05658872091458953 -6.218023620147336 -1.5167818327225666 -0.10958681675903216" Properties=species:S:1:pos:R:3 unique_starting_index=10 config_type=initial n_minim_iter=11 stress="1546971567873338.5 -2.0469962287117844e+16 -1.3763617222406189e+17 -2.0469962287117844e+16 2.6865248997105008e+17 -9994909553972274.0 -1.3763617222406189e+17 -9994909553972274.0 1.972506564736918e+17" pbc="T T T"
Si       1.30238028       1.00338021       1.11636475
Si      -0.99790982      -0.30420933       0.30334872
Si       1.47128335       0.13222402       0.66020983
Si       1.47967413       0.41709022       1.47152871
Si      -3.09594906      -0.60736048      -0.79557407
Si      -0.68480555       0.89979807      -0.22715471
Si      -3.26485213       0.26379570      -0.33941915
Si       2.81078591       2.86194659      -0.98456250
Si       2.79815065       1.63270256      -0.30613433
Si      -3.79846529      -0.51822007      -0.26125164
Si       1.49230939       1.64633426       0.79310055
Si      -4.10227369      -0.40297303       0.22785883
Si       1.96991946       0.61867041       0.38779112
Si       2.45453538       1.29413115       0.04258638
14
Lattice="6.061258242450464 1.273982819788206 0.4012860586465898 -0.1418324068076696 1.3749788610438294 0.05784976496841242 -6.168366061319096 -1.4731119570789746 -0.1578128665868987" Properties=species:S:1:pos:R:3 unique_starting_index=10 config_type=initial n_minim_iter=12 stress="-1313030781714992.0 -2.209674049206943e+16 -1.369370390074412e+17 -2.209674049206943e+16 2.7080549689674573e+17 -1.0789269585823774e+16 -1.369370390074412e+17 -1.0789269585823774e+16 2.0052139990383917e+17" pbc="T T T"
Si       1.28090089       1.02480575       1.15060960
Si      -0.97681500      -0.31915090       0.27159107
Si       1.45642024       0.11628102       0.69237075
Si       1.48804591       0.38036650       1.46702904
Si      -3.06325148      -0.61076102      -0.84233400
Si      -0.69842777       0.93232478      -0.20678867
Si      -3.23877084       0.29776372      -0.38409515
Si       2.75613716       2.88176905      -0.94309081
Si       2.76842385       1.63935335      -0.27960693
Si      -3.77875803      -0.48055527      -0.28104401
Si       1.47575921       1.62278221       0.80354516
Si      -4.06485080      -0.37938281       0.18803355
Si       1.95387091       0.63164499       0.41370027
Si       2.43214456       1.25551171       0.05238819
14
Lattice="6.018866133883926 1.2365160235792643 0.4471236681638612 -0.14846202334147326 1.3831033598967866 0.05722990332941463 -6.12241807816429 -1.4356512881448975 -0.2046275020417333" Properties=species:S:1:pos:R:3 unique_starting_index=10 config_type=initial n_minim_iter=13 stress="-3708795173703001.0 -2.3439004945954176e+16 -1.3742452869932206e+17 -2.3439004945954176e+16 2.74112007660837e+17 -1.2018944083396456e+16 -1.3742452869932206e+17 -1.2018944083396456e+16 2.051201480940754e+17" pbc="T T T"
Si       1.26042860       1.04621310       1.18237209
Si      -0.95539335      -0.32974584       0.23952141
Si       1.43493318       0.10070785       0.72567610
Si       1.49454091       0.34031762       1.46179605
Si      -3.03181956      -0.61671748      -0.88748633
Si      -0.71244567       0.95837672      -0.18713182
Si      -3.20632415       0.32878777      -0.43079034
Si       2.70802418       2.90793265      -0.90505288
Si       2.73644152       1.64811486      -0.26013806
Si      -3.76282828      -0.44228176      -0.30127371
Si       1.46612357       1.60013541       0.81688123
Si      -4.02742882      -0.36473865       0.14903581
Si       1.93395999       0.65183264       0.43546854
Si       2.41706712       1.21331427       0.06404472
14
Lattice="5.9799080824316855 1.2092737458988647 0.49589157879739526 -0.1542332699979054 1.3967309026577663 0.058828477918335474 -6.080010169070029 -1.4086591265591302 -0.2556566709641127" Properties=species:S:1:pos:R:3 unique_starting_index=10 config_type=initial n_minim_iter=14 stress="-6059878431410729.0 -2.4917789584723004e+16 -1.374651597925067e+17 -2.4917789584723004e+16 2.7675935497414672e+17 -1.191075087256666e+16 -1.374651597925067e+17 -1.191075087256666e+16 2.0879785816770416e+17" pbc="T T T"
Si       1.24357819       1.06403915       1.20513333
Si      -0.93559153      -0.33564985       0.20853039
Si       1.41805045       0.08747412       0.75461272
Si       1.50384980       0.30722494       1.44901959
Si      -3.00438329      -0.61788748      -0.92463250
Si      -0.72511148       0.98118691      -0.16826447
Si      -3.17885555       0.35867755      -0.47411189
Si       2.66112200       2.94431676      -0.85403361
Si       2.70896658       1.65298349      -0.23724969
Si      -3.74863372      -0.41295828      -0.32316597
Si       1.45600521       1.59855821       0.83223567
Si      -3.99207946      -0.35016380       0.10777521
Si       1.92014760       0.67043504       0.45800615
Si       2.39905747       1.18437576       0.07815135
14
Lattice="5.976530456266855 1.2144298828455513 0.49830523727638326 -0.15093019138389369 1.3857582269832198 0.054855012617580266 -6.076724079433236 -1.413663063064862 -0.2563706804527424" Properties=species:S:1:pos:R:3 unique_starting_index=10 config_type=initial n_minim_iter=15 stress="-1.0113603070230898e+16 -2.404905564659493e+16 -1.3834225561801142e+17 -2.404905564659493e+16 2.7775145838414374e+17 -1.2621601378017352e+16 -1.3834225561801142e+17 -1.2621601378017352e+16 2.1067779583867946e+17" pbc="T T T"
Si       1.21978336       1.06736866       1.22244977
Si      -0.94272425      -0.35441472       0.18831293
Si       1.41074585       0.08781515       0.78090384
Si       1.50224690       0.26978814       1.43636476
Si      -2.97740405      -0.63050723      -0.94298298
Si      -0.71470282       0.99050933      -0.15078070
Si      -3.16836654       0.34904628      -0.50143705
Si       2.66592629       2.96649458      -0.84567228
Si       2.71069588       1.64624277      -0.25026167
Si      -3.76057268      -0.41733557      -0.30567577
Si       1.45747732       1.59003995       0.84095415
Si      -3.97357847      -0.36023288       0.08683732
Si       1.91367676       0.67561707       0.45640513
Si       2.40542663       1.17490742       0.07943234
14
Lattice="5.958325602759841 1.1987391625469657 0.5174231105728598 -0.15407426174718247 1.3903225670612582 0.05790129657507888 -6.05711081035725 -1.397422624771111 -0.276150487852799" Properties=species:S:1:pos:R:3 unique_starting_index=10 config_type=initial n_minim_iter=16 stress="-1.1278460563956202e+16 -2.430188994612969e+16 -1.3800971910554123e+17 -2.430188994612969e+16 2.8106658228408784e+17 -1.163396278492811e+16 -1.3800971910554123e+17 -1.163396278492811e+16 2.1257869692352912e+17" pbc="T T T"
Si       1.19327533       1.09101601       1.24559081
Si      -0.93576910      -0.36295142       0.18091685
Si       1.40698003       0.09600002       0.81315220
Si       1.50427133       0.23663537       1.43327146
Si      -2.94659024      -0.64598406      -0.96961168
Si      -0.71876060       1.00666683      -0.14621034
Si      -3.16029494       0.34903192      -0.53717307
Si       2.64545031       2.99614176      -0.82324054
Si       2.69625510       1.63549629      -0.25279818
Si      -3.76308757      -0.40494004      -0.29162168
Si       1.45346654       1.59728084       0.86282909
Si      -3.94855294      -0.34876718       0.05017770
Si       1.90599687       0.66998973       0.45851112
Si       2.39779904       1.17246484       0.09361850
14
Lattice="5.946027057071117 1.1847861098186403 0.5250092181167622 -0.15629075623563424 1.3898242265696539 0.05935026313914073 -6.044064667350154 -1.382854472182986 -0.28334168633387546" Properties=species:S:1:pos:R:3 unique_starting_index=10 config_type=initial n_minim_iter=17 stress="-1.2321370135523142e+16 -2.4757837329654196e+16 -1.3835202619261482e+17 -2.4757837329654196e+16 2.836276156494786e+17 -1.069659705581893e+16 -1.3835202619261482e+17 -1.069659705581893e+16 2.144848542795583e+17" pbc="T T T"
Si       1.16809775       1.11131187       1.25984380
Si      -0.93201128      -0.37143523       0.17694580
Si       1.40230788       0.10747742       0.84945821
Si       1.50285562       0.20219184       1.43019690
Si      -2.91887899      -0.66224276      -0.98408211
Si      -0.72073235       1.01857269      -0.14285164
Si      -3.15308913       0.34159168      -0.57369652
Si       2.63413705       3.01955596      -0.81174326
Si       2.68728859       1.62543506      -0.26401499
Si      -3.76514477      -0.39201193      -0.27149067
Si       1.44970408       1.59631274       0.88246863
Si      -3.93166353      -0.34370508       0.02224314
Si       1.90585099       0.66509459       0.46155211
Si       2.38743243       1.16682899       0.09755127
14
Lattice="5.934360710001623 1.1724512762911978 0.5325726426702616 -0.15823161163552685 1.3894937315322438 0.06062925484724039 -6.0316882154646745 -1.3699873530812472 -0.2905485196371995" Properties=species:S:1:pos:R:3 unique_starting_index=10 config_type=initial n_minim_iter=18 stress="-1.3167546652880372e+16 -2.5604304779428536e+16 -1.3915152444713734e+17 -2.5604304779428536e+16 2.8693749718799926e+17 -9625472094229614.0 -1.3915152444713734e+17 -9625472094229614.0 2.1692170363952243e+17" pbc="T T T"
Si       1.14288734       1.13213579       1.27368731
Si      -0.92836557      -0.37972526       0.17310767
Si       1.39806693       0.11947906       0.88577729
Si       1.50179895       0.16797280       1.42632722
Si      -2.89114249      -0.67943243      -0.99832235
Si      -0.72256207       1.02996470      -0.13976683
Si      -3.14632207       0.33322431      -0.61041233
Si       2.62340251       3.04421165      -0.79978448
Si       2.67929061       1.61702736      -0.27550006
Si      -3.76761590      -0.37990081      -0.25130223
Si       1.44591085       1.59515709       0.90204280
Si      -3.91499995      -0.33984709      -0.00590545
Si       1.90589631       0.66093153       0.46413105
Si       2.37753676       1.16175919       0.10178243
14
Lattice="5.926677748288534 1.1591504503546408 0.5309256001017534 -0.1600444719874127 1.3859459462082244 0.06116789455314747 -6.023756719559104 -1.3560265985470525 -0.28780846963408074" Properties=species:S:1:pos:R:3 unique_starting_index=10 config_type=initial n_minim_iter=19 stress="-1.4577029728269394e+16 -2.6421918977706464e+16 -1.3976023439012717e+17 -2.6421918977706464e+16 2.8897331038491046e+17 -9464141051205598.0 -1.3976023439012717e+17 -9464141051205598.0 2.1904148962498035e+17" pbc="T T T"
Si       1.12655873       1.13326653       1.29614108
Si      -0.92655837      -0.38711301       0.17268425
Si       1.39140211       0.13704830       0.91820298
Si       1.49767277       0.13612158       1.42611652
Si      -2.87387998      -0.67890891      -1.01832087
Si      -0.72368390       1.03834678      -0.13798116
Si      -3.13872335       0.31730932      -0.64038277
Si       2.61871824       3.06020860      -0.79931994
Si       2.67966938       1.60808395      -0.28931053
Si      -3.77555598      -0.36508844      -0.22547773
Si       1.43672162       1.58824622       0.91610712
Si      -3.89844301      -0.33970438      -0.02762766
Si       1.90996787       0.65999769       0.46274753
Si       2.36646761       1.15038654       0.10288115
14
Lattice="5.919391495639948 1.150582113437745 0.5311945505203542 -0.16112429481999896 1.3838076759696154 0.06096117666213763 -6.016196998954732 -1.347167726108363 -0.28727296030620825" Properties=species:S:1:pos:R:3 unique_starting_index=10 config_type=initial n_minim_iter=20 stress="-1.5958057154361234e+16 -2.7043977900078584e+16 -1.4004324146161763e+17 -2.7043977900078584e+16 2.9044226432928237e+17 -9560210299828382.0 -1.4004324146161763e+17 -9560210299828382.0 2.2039374183686426e+17" pbc="T T T"
Si       1.11307759       1.13458966       1.31585835
Si      -0.92475026      -0.39496862       0.17123851
Si       1.38224903       0.14983072       0.95214318
Si       1.49440594       0.10671872       1.42599377
Si      -2.85897693      -0.67925785      -1.03705372
Si      -0.72434359       1.04688604      -0.13635547
Si      -3.12814838       0.30550109      -0.67333855
Si       2.61476742       3.07958850      -0.79895500
Si       2.68011140       1.60615255      -0.30054626
Si      -3.78118171      -0.36037873      -0.19925802
Si       1.42906196       1.58015467       0.92758502
Si      -3.88410914      -0.33487157      -0.05313190
Si       1.91613655       0.66018472       0.45670150
Si       2.35416111       1.14231482       0.10937609
14
Lattice="5.920664136150334 1.1444663573934892 0.5148398793301485 -0.1613214046088723 1.3758032397443634 0.06210837236216542 -6.018231602798279 -1.3400352607112094 -0.2691786114442496" Properties=species:S:1:pos:R:3 unique_starting_index=10 config_type=initial n_minim_iter=21 stress="-1.653614635711255e+16 -2.712378197513553e+16 -1.4069446510892445e+17 -2.712378197513553e+16 2.9162392856589446e+17 -9583960072897524.0 -1.4069446510892445e+17 -9583960072897524.0 2.206364292591039e+17" pbc="T T T"
Si       1.09457606       1.13299076       1.34316536
Si      -0.92507613      -0.40369813       0.17495367
Si       1.37000454       0.15872529       0.98580075
Si       1.48761890       0.07508130       1.42650877
Si      -2.84208435      -0.68060827      -1.05680215
Si      -0.72486469       1.05164952      -0.13425173
Si      -3.11751283       0.29365720      -0.69943754
Si       2.62178301       3.09313969      -0.80885858
Si       2.68366711       1.60419504      -0.32635282
Si      -3.80084298      -0.35826926      -0.18261056
Si       1.42573481       1.56402594       0.94400302
Si      -3.86732944      -0.33381461      -0.04586610
Si       1.93714579       0.65190167       0.44565346
Si       2.33357752       1.14051607       0.10988837
