14
Lattice="6.093098258588179 0.4572689836161749 -0.6433490412590243 -0.23698232779835812 2.072409105770572 0.8235735438200956 -6.16644158558416 -0.5382531444967321 0.9234864269853768" Properties=species:S:1:pos:R:3 unique_starting_index=10 config_type=initial n_minim_iter=1 energy=-972090763071933.9 free_energy=-972090763071933.9 pbc="T T T"
Si       1.47228179       1.55115371       0.80847821
Si      -0.91499447      -0.01164655       0.75702525
Si       1.67928738       0.74003189       0.07401787
Si       1.53075506       2.19381490       1.47184503
Si      -3.28330809      -0.23264036       0.39024528
Si      -0.82268850       1.41114406       0.16156086
Si      -3.49031367       0.57848146       1.12470563
Si       2.58767790       1.73536069      -0.37303442
Si       2.74872819       1.49436876       0.09905130
Si      -4.08701418       0.29304089       0.74533089
Si       1.36970477       2.43480683       0.99975931
Si      -3.81711038       0.56820347       1.09674165
Si       1.94883315       1.05969119       0.12947467
Si       2.40658213       0.79707530       0.14576240
14
Lattice="6.260290224994306 0.44141464491769455 -0.5101799039367887 -0.22852610786217947 1.9975675953061278 0.7926502311884354 -6.330733001639194 -0.519184286519553 0.7791507991204019" Properties=species:S:1:pos:R:3 unique_starting_index=10 config_type=initial n_minim_iter=2 stress="432882666034041.0 -20063943801194.633 -854676186145443.9 -20063943801194.633 3433321508066580.5 -66934637391190.766 -854676186145443.9 -66934637391190.766 3392670989206633.0" pbc="T T T"
Si       1.53606214       1.49547294       0.80991944
Si      -0.92986227      -0.01088594       0.71369203
Si       1.73476518       0.71413415       0.10410662
Si       1.60677181       2.11548156       1.45148875
Si      -3.37819344      -0.22430536       0.31556955
Si      -0.84182626       1.35982316       0.14282607
Si      -3.57689648       0.55703342       1.02138237
Si       2.65330378       1.67243790      -0.31250032
Si       2.82641637       1.44044150       0.14551913
Si      -4.19068172       0.28153740       0.64617757
Si       1.43365923       2.34747796       0.99346929
Si      -3.91173980       0.54821553       0.98949132
Si       2.01084469       1.02244284       0.16205185
Si       2.47775701       0.76790902       0.18428634
14
Lattice="6.488595111658853 0.43332894717507076 -0.40335643207278216 -0.22455322836416308 1.9591514749191674 0.7763678670758382 -6.557524621635587 -0.5093961211096139 0.666364073679906" Properties=species:S:1:pos:R:3 unique_starting_index=10 config_type=initial n_minim_iter=3 stress="3576326561249502.0 -15214032860065.787 -186906960007176.1 -15214032860065.787 4331673538583417.5 3711481681489.5576 -186906960007176.1 3711481681489.5576 4214846019458647.5" pbc="T T T"
Si       1.61083039       1.46690608       0.82144770
Si      -0.95502807      -0.01058564       0.68623683
Si       1.80524410       0.70098070       0.13087174
Si       1.69335180       2.07540407       1.45293495
Si      -3.50478835      -0.21997547       0.25617877
Si      -0.87000038       1.33358343       0.12838200
Si      -3.69920206       0.54594992       0.94675473
Si       2.74566163       1.64007413      -0.26530469
Si       2.93196360       1.41271028       0.18701160
Si      -4.33653388       0.27552671       0.57005609
Si       1.50704983       2.30276793       1.00061867
Si      -4.04601919       0.53807496       0.91092682
Si       2.09118652       1.00349915       0.19177208
Si       2.57238014       0.75282758       0.21949031
14
Lattice="6.566971392066212 0.41285563951441484 -0.5255352908242399 -0.24682916039903122 1.8783068905037095 0.7591594395373249 -6.641040798371592 -0.49148810242462965 0.7975991504053044" Properties=species:S:1:pos:R:3 unique_starting_index=10 config_type=initial n_minim_iter=4 stress="3936805968830236.5 -30862984839389.887 -163885229882352.78 -30862984839389.887 4600089842803119.0 15155981999729.031 -163885229882352.78 15155981999729.031 4436300878828493.5" pbc="T T T"
Si       1.61343332       1.39434136       0.78763926
Si      -0.98574945      -0.03070517       0.71937023
Si       1.81961594       0.67520189       0.09529027
Si       1.69457581       1.97027927       1.42709032
Si      -3.55140215      -0.20677379       0.32120993
Si      -0.87814997       1.29690520       0.11741510
Si      -3.75758477       0.51236568       1.01355892
Si       2.76166700       1.58708329      -0.35668083
Si       2.95807219       1.35434294       0.11710885
Si      -4.38090684       0.25939666       0.64892634
Si       1.49817063       2.20301961       0.95330063
Si      -4.12403338       0.51531527       0.98545814
Si       2.11604441       0.96584303       0.14696635
Si       2.58702756       0.71321264       0.16428369
14
Lattice="6.645836518586522 0.3994104577985378 -0.6458215403946823 -0.2664976608109399 1.8002392515312486 0.7437371978215472 -6.725020685967629 -0.4806840773861151 0.9272420606345794" Properties=species:S:1:pos:R:3 unique_starting_index=10 config_type=initial n_minim_iter=5 stress="4266176670746862.0 -47175087927221.734 -129794112315027.88 -47175087927221.734 4766637736520544.0 13692430866474.615 -129794112315027.88 13692430866474.615 4646364349868382.0" pbc="T T T"
Si       1.61727559       1.32610795       0.75627590
Si      -1.01410234      -0.05127979       0.75411273
Si       1.83477300       0.65187257       0.06061146
Si       1.69721576       1.87016054       1.40426306
Si      -3.59738421      -0.19769155       0.38511316
Si      -0.88682211       1.26096980       0.10585581
Si      -3.81488162       0.47654383       1.08077761
Si       2.78119864       1.53917918      -0.44637886
Si       2.98610767       1.30142703       0.04932750
Si      -4.42572537       0.24022804       0.72677652
Si       1.49230674       2.10791270       0.90855670
Si      -4.20021977       0.48877790       1.06043409
Si       2.14156543       0.93131489       0.10290415
Si       2.60334663       0.67778558       0.11124286
14
Lattice="6.789912054641775 0.4328868059089803 -0.8495621856703595 -0.2873305531271079 1.7371043281468748 0.7076068422323839 -6.879522085551903 -0.519688194780945 1.1376663507386957" Properties=species:S:1:pos:R:3 unique_starting_index=10 config_type=initial n_minim_iter=6 stress="4444112685823739.0 -74994261259339.77 -76541005283923.62 -74994261259339.77 4860523027212050.0 -11852780227339.184 -76541005283923.62 -11852780227339.184 4654073972053977.0" pbc="T T T"
Si       1.63311906       1.27742197       0.68269901
Si      -1.05859989      -0.09582609       0.80303285
Si       1.86761547       0.64402302       0.00629762
Si       1.70437092       1.79595539       1.33971085
Si      -3.68051004      -0.21301750       0.49255292
Si      -0.89918105       1.24703194       0.08411492
Si      -3.91500644       0.42038145       1.16895431
Si       2.84042964       1.52524160      -0.59451843
Si       3.04190719       1.29101324      -0.05977584
Si      -4.50854210       0.18864335       0.85531300
Si       1.50289337       2.03018375       0.80496826
Si      -4.32876093       0.44287431       1.16950111
Si       2.19169331       0.92620074       0.03218097
Si       2.64043780       0.65789192       0.00540461
14
Lattice="6.964855192391828 0.4989859622735851 -1.0890162668185517 -0.3004665769130154 1.6710062420005904 0.6942677322012437 -7.067380355907049 -0.5891332208111609 1.3849556846580062" Properties=species:S:1:pos:R:3 unique_starting_index=10 config_type=initial n_minim_iter=7 stress="4584859522137553.0 -81629585105175.84 -140802795966130.56 -81629585105175.84 5060231352041707.0 -14685364070987.416 -140802795966130.56 -14685364070987.416 4830217297862054.0" pbc="T T T"
Si       1.66285132       1.24033335       0.61545857
Si      -1.11540349      -0.13822021       0.86111146
Si       1.90846576       0.64002698      -0.04777813
Si       1.72057181       1.73458893       1.29143036
Si      -3.78320279      -0.24704605       0.62140542
Si      -0.90242282       1.22165478       0.07981311
Si      -4.02881724       0.35326032       1.28464212
Si       2.92599049       1.51883784      -0.74525432
Si       3.11418732       1.29363402      -0.17397427
Si      -4.61580380       0.11773196       1.01298734
Si       1.53237499       1.95979275       0.72015031
Si      -4.46940287       0.37656939       1.31289292
Si       2.25278056       0.92509662      -0.04040296
Si       2.69424832       0.65732390      -0.10768873
14
Lattice="7.008222173662427 0.5578870864497103 -1.1468584909806692 -0.2882558135237194 1.6285628562606842 0.680030740298288 -7.11386783131376 -0.6513331049601291 1.4484443122904038" Properties=species:S:1:pos:R:3 unique_starting_index=10 config_type=initial n_minim_iter=8 stress="4831334265459315.0 -85781069671221.6 -104580318265040.36 -85781069671221.6 5185458747737035.0 28324316828342.555 -104580318265040.36 28324316828342.555 4976646882651120.0" pbc="T T T"
Si       1.67720419       1.21913773       0.59083164
Si      -1.14438490      -0.17968842       0.91243503
Si       1.91876649       0.63413320      -0.06274501
Si       1.75025336       1.69636426       1.29997045
Si      -3.80392008      -0.27735638       0.65828477
Si      -0.87668533       1.21491579       0.03509556
Si      -4.04548238       0.30764814       1.31186142
Si       2.94864277       1.52531305      -0.81926761
Si       3.13898820       1.29487747      -0.20097490
Si      -4.63301476       0.06609240       1.04510937
Si       1.55990794       1.92679984       0.68167774
Si      -4.50192330       0.31780186       1.35086553
Si       2.27429017       0.91862249      -0.05375069
Si       2.71286178       0.67449196      -0.14557721
14
Lattice="7.055963212219915 0.6202088057086562 -1.2107722671935501 -0.27624405265852303 1.5870717035579331 0.6629507445781679 -7.165052659508313 -0.7174639736742606 1.5181528315456707" Properties=species:S:1:pos:R:3 unique_starting_index=10 config_type=initial n_minim_iter=9 stress="5024837211756295.0 -85137411344862.75 -72726972533121.88 -85137411344862.75 5256226646935928.0 40874076856859.75 -72726972533121.88 40874076856859.75 5127551229702492.0" pbc="T T T"
Si       1.69298800       1.19892883       0.56244239
Si      -1.17509176      -0.22327850       0.96643128
Si       1.93011415       0.62906213      -0.07981944
Si       1.78025446       1.65798578       1.30410436
Si      -3.82779601      -0.30956000       0.69853458
Si      -0.85062680       1.20990249      -0.01283487
Si      -4.06492216       0.26030670       1.34079641
Si       2.97374613       1.53591873      -0.89832948
Si       3.16512123       1.29746952      -0.23253801
Si      -4.65360897       0.01258775       1.08052420
Si       1.58887936       1.89643498       0.63831290
Si      -4.53716225       0.25657228       1.39122504
Si       2.29627447       0.91269571      -0.06937052
Si       2.73397018       0.69413709      -0.18780534
14
Lattice="7.16644465164818 0.6057248535749697 -1.3064804874694573 -0.2967110537077449 1.5546533556261264 0.6559409069275669 -7.28105639789309 -0.7027037731197504 1.6142029594253362" Properties=species:S:1:pos:R:3 unique_starting_index=10 config_type=initial n_minim_iter=10 stress="5020611370368765.0 -99780417831436.1 -131095181479085.86 -99780417831436.1 5314026708747524.0 32346662471913.215 -131095181479085.86 32346662471913.215 5239524504003837.0" pbc="T T T"
Si       1.67616241       1.17398483       0.51917761
Si      -1.20038630      -0.22796990       0.99193230
Si       1.93017290       0.59738005      -0.10594671
Si       1.78818795       1.59960014       1.29979762
Si      -3.86222448      -0.30489440       0.76098191
Si      -0.87106402       1.19403925      -0.01949526
Si      -4.11623497       0.27171038       1.38610622
Si       3.01009532       1.52684742      -0.97790016
Si       3.22946336       1.26395396      -0.27677916
Si      -4.71502088       0.01652026       1.14002627
Si       1.56881992       1.86249359       0.59867662
Si      -4.63748584       0.24684532       1.44661373
Si       2.31096099       0.88509989      -0.08304916
Si       2.78403334       0.68669431      -0.25099429
14
Lattice="7.199230201211108 0.6340914664413556 -1.3216172387253853 -0.2918785978904619 1.5368579437759118 0.6291373155086781 -7.314944730213605 -0.7346556640449949 1.6302465549544924" Properties=species:S:1:pos:R:3 unique_starting_index=10 config_type=initial n_minim_iter=11 stress="5080503335808816.0 -74106303847595.1 -102136583242945.2 -74106303847595.1 5297123900136521.0 5203769127815.6455 -102136583242945.2 5203769127815.6455 5261069379576143.0" pbc="T T T"
Si       1.68294310       1.16791117       0.48782489
Si      -1.21756969      -0.23992505       0.99597059
Si       1.93558115       0.59690900      -0.11462215
Si       1.79914648       1.55256475       1.30143370
Si      -3.87523139      -0.32463687       0.77737638
Si      -0.85900407       1.18376354      -0.03939863
Si      -4.12786944       0.24636529       1.37982342
Si       3.03163136       1.56222316      -1.03734167
Si       3.27231521       1.27934458      -0.30842970
Si      -4.72764805      -0.00028390       1.12634901
Si       1.55846264       1.83544333       0.57252173
Si      -4.66387044       0.20946673       1.46046950
Si       2.30223099       0.87923574      -0.08289913
Si       2.82042545       0.69869422      -0.28214616
14
Lattice="7.209552611317169 0.599328294554414 -1.3314500319241933 -0.3057056216410816 1.5262499012682837 0.6190147045237223 -7.325177772594419 -0.7008443501855232 1.6413315731551368" Properties=species:S:1:pos:R:3 unique_starting_index=10 config_type=initial n_minim_iter=12 stress="5107961656945567.0 -70750905602402.69 -104776209387715.97 -70750905602402.69 5301850506740953.0 -5226240607029.401 -104776209387715.97 -5226240607029.401 5268609898121061.0" pbc="T T T"
Si       1.67871226       1.15237931       0.47286142
Si      -1.21658267      -0.23486546       1.00384042
Si       1.93609309       0.58123338      -0.11473856
Si       1.78637962       1.50166513       1.32667921
Si      -3.88381737      -0.30979804       0.78908443
Si      -0.87289728       1.17896278      -0.05177611
Si      -4.14119820       0.26134789       1.37668441
Si       3.02798742       1.56801039      -1.08705023
Si       3.28582825       1.26658687      -0.32919147
Si      -4.72719629       0.02771902       1.10623873
Si       1.52853880       1.80308865       0.56882045
Si      -4.68746143       0.21553395       1.48715715
Si       2.28881157       0.85252367      -0.07310193
Si       2.83126109       0.69090195      -0.30628379
14
Lattice="7.2148887152656345 0.555876087278522 -1.3321664369757298 -0.32146343727445725 1.5148700092109135 0.6045400329755606 -7.329761866247598 -0.6588663949244778 1.6435729075182843" Properties=species:S:1:pos:R:3 unique_starting_index=10 config_type=initial n_minim_iter=13 stress="5152082792563999.0 -64224804400396.29 -94055326080746.53 -64224804400396.29 5321100402087463.0 -22590614019063.086 -94055326080746.53 -22590614019063.086 5256651549003501.0" pbc="T T T"
Si       1.66614092       1.13047393       0.46247763
Si      -1.21770435      -0.22721933       1.00379819
Si       1.93147063       0.56129881      -0.10963166
Si       1.76267999       1.44512995       1.35261367
Si      -3.88327040      -0.28777590       0.79107871
Si      -0.88455198       1.17290767      -0.06164832
Si      -4.14860011       0.28139921       1.36318800
Si       3.02848896       1.57130448      -1.13809021
Si       3.28357056       1.24273589      -0.33717425
Si      -4.73029444       0.05812934       1.08017809
Si       1.50759839       1.77369854       0.55169772
Si      -4.70172376       0.22869260       1.50554469
Si       2.27895642       0.82268565      -0.06322087
Si       2.83367597       0.67887877      -0.32679570
14
Lattice="7.2154675971450315 0.5112605839270666 -1.3317470265380307 -0.3368240886183414 1.5054815812430815 0.5957832778261332 -7.329497350242369 -0.6150874665990608 1.6448138428337724" Properties=species:S:1:pos:R:3 unique_starting_index=10 config_type=initial n_minim_iter=14 stress="5161141538227786.0 -64809913924298.1 -80780658043253.06 -64809913924298.1 5351873652175093.0 -28635946935061.434 -80780658043253.06 -28635946935061.434 5268928463140181.0" pbc="T T T"
Si       1.65548217       1.10988481       0.45331884
Si      -1.21691627      -0.21802407       1.00541309
Si       1.92931221       0.54268253      -0.10640862
Si       1.73991130       1.39108536       1.38470744
Si      -3.88301176      -0.26432910       0.79605560
Si      -0.89658357       1.16740667      -0.06910547
Si      -4.15684180       0.30287319       1.35578306
Si       3.02523236       1.57503941      -1.18436357
Si       3.27461604       1.21856577      -0.33890616
Si      -4.73163479       0.08756067       1.06231036
Si       1.49052763       1.74755900       0.53925004
Si      -4.71136240       0.24673446       1.51881111
Si       2.26666455       0.79663515      -0.05449129
Si       2.83530320       0.66400804      -0.34094811
14
Lattice="7.224837343810969 0.46618824995015057 -1.3396075908143263 -0.3539648075640657 1.496240855312926 0.5855818953931026 -7.338506219735407 -0.5709962320632466 1.6542121958379434" Properties=species:S:1:pos:R:3 unique_starting_index=10 config_type=initial n_minim_iter=15 stress="5139914589438912.0 -75757114630935.9 -96158731052969.0 -75757114630935.9 5387470323490377.0 -31504868103290.145 -96158731052969.0 -31504868103290.145 5308687722429806.0" pbc="T T T"
Si       1.64533904       1.08906669       0.44094569
Si      -1.22041490      -0.20895256       1.01023971
Si       1.92816373       0.52314963      -0.10608808
Si       1.71333169       1.33675144       1.41230593
Si      -3.88752529      -0.24064508       0.80504953
Si      -0.90810248       1.16218215      -0.07884909
Si      -4.17034998       0.32527197       1.35208330
Si       3.02902347       1.57890725      -1.23494101
Si       3.26940033       1.19463191      -0.34912227
Si      -4.73937252       0.11705201       1.05045260
Si       1.47295483       1.72102678       0.52648719
Si      -4.72765107       0.26518135       1.53515021
Si       2.25873987       0.77152950      -0.05226990
Si       2.83758009       0.64788834      -0.35594707
14
Lattice="7.237258065275828 0.41391376550338893 -1.3497630823071107 -0.37394791303298175 1.4870778672654992 0.5757776184141502 -7.350621275835626 -0.5195643134393443 1.6659215475753963" Properties=species:S:1:pos:R:3 unique_starting_index=10 config_type=initial n_minim_iter=16 stress="5089024130274667.0 -87032826866257.73 -126042584594368.78 -87032826866257.73 5417439993528142.0 -28264424129686.664 -126042584594368.78 -28264424129686.664 5332164513034369.0" pbc="T T T"
Si       1.63375387       1.06647944       0.42816315
Si      -1.22524830      -0.19882893       1.01545212
Si       1.92793367       0.50193639      -0.10667591
Si       1.68457545       1.28080653       1.44048894
Si      -3.89357413      -0.21312530       0.81534853
Si      -0.92120875       1.15783362      -0.08809890
Si      -4.18775394       0.35141775       1.35018759
Si       3.03227765       1.57918979      -1.28712119
Si       3.26432115       1.16730273      -0.36012542
Si      -4.75107216       0.15161514       1.04055060
Si       1.45253195       1.69269359       0.51349317
Si      -4.74600616       0.28782523       1.55272417
Si       2.25022384       0.74370533      -0.05009163
Si       2.84057717       0.62921312      -0.37231824
14
Lattice="7.22694783112174 0.3624090890970588 -1.339734116437056 -0.3891855735336802 1.4683793610754787 0.5674477956943795 -7.338509441090506 -0.46934758559972584 1.6600142204523722" Properties=species:S:1:pos:R:3 unique_starting_index=10 config_type=initial n_minim_iter=17 stress="5138392553181095.0 -78513655306286.08 -113574980904562.6 -78513655306286.08 5433759043700836.0 -17441790354596.793 -113574980904562.6 -17441790354596.793 5361723726116399.0" pbc="T T T"
Si       1.61944820       1.03594391       0.43875855
Si      -1.22409157      -0.18254051       1.02639422
Si       1.93161395       0.46960047      -0.11371954
Si       1.65610183       1.21450549       1.48931651
Si      -3.88541675      -0.18566940       0.80218098
Si      -0.93031537       1.13975351      -0.10573479
Si      -4.19758250       0.38067404       1.35465907
Si       3.02725349       1.57349596      -1.34094340
Si       3.25008460       1.14167092      -0.36639409
Si      -4.74833377       0.17127252       1.02335007
Si       1.43327072       1.64633053       0.51476720
Si      -4.74458261       0.31659290       1.55732358
Si       2.23241608       0.71095759      -0.01782506
Si       2.84012481       0.60866451      -0.40124963
14
Lattice="7.203813233962312 0.22209683617865597 -1.3072530861107936 -0.4319809754527641 1.4458831788172473 0.5480306335552234 -7.31094016222541 -0.33116188864603346 1.6335789813446302" Properties=species:S:1:pos:R:3 unique_starting_index=10 config_type=initial n_minim_iter=18 stress="4943248137496916.0 -130833046982060.39 -160471143380666.2 -130833046982060.39 5469812601639307.0 145729013541.52133 -160471143380666.2 145729013541.52133 5306798954253898.0" pbc="T T T"
Si       1.58654329       0.98113248       0.45118385
Si      -1.22226590      -0.15067869       1.05016320
Si       1.91622052       0.39862771      -0.10125653
Si       1.61089050       1.10352659       1.53385410
Si      -3.87217272      -0.11584188       0.77614124
Si      -0.95623660       1.12503434      -0.14916401
Si      -4.20184995       0.46666288       1.32858162
Si       2.98243925       1.53880908      -1.39207736
Si       3.20246785       1.08368727      -0.36102045
Si      -4.74434205       0.25266046       0.99037856
Si       1.39086190       1.55864840       0.50279719
Si      -4.74510062       0.39053330       1.54419962
Si       2.19437021       0.64331462       0.02469444
Si       2.83094052       0.55313787      -0.43094833
14
Lattice="7.1817725214252475 0.09579543380010075 -1.2715857003464626 -0.4698372308642598 1.4237006450464542 0.5268056592173207 -7.284414773096186 -0.20762093670645204 1.6044812584168262" Properties=species:S:1:pos:R:3 unique_starting_index=10 config_type=initial n_minim_iter=19 stress="4638005345085431.0 -210965413883004.5 -268129825133217.72 -210965413883004.5 5492334159545031.0 -27706890263294.152 -268129825133217.72 -27706890263294.152 5237370197240811.0" pbc="T T T"
Si       1.55728743       0.93062813       0.46186420
Si      -1.22123569      -0.12067313       1.07368868
Si       1.90553232       0.33217874      -0.08691388
Si       1.57250125       0.99598449       1.58262014
Si      -3.85907186      -0.05453976       0.75047981
Si      -0.97790648       1.10858701      -0.19424023
Si      -4.20731675       0.54390963       1.29925789
Si       2.94029186       1.51142547      -1.44795173
Si       3.15707501       1.03224796      -0.35576354
Si      -4.73870310       0.32699696       0.95662509
Si       1.35571811       1.47516200       0.49043195
Si      -4.74485385       0.45329598       1.52730461
Si       2.16200380       0.57883230       0.07079345
Si       2.82062655       0.50487701      -0.46293071
14
Lattice="7.193577330347063 0.05108907612248123 -1.2746464677893463 -0.48484826472865533 1.415127876105534 0.5308227558776273 -7.295812196328851 -0.16206113780145662 1.609057883755384" Properties=species:S:1:pos:R:3 unique_starting_index=10 config_type=initial n_minim_iter=20 stress="4524339368671432.0 -236014236649616.56 -325815813683780.1 -236014236649616.56 5503907332589527.0 -44138971713448.18 -325815813683780.1 -44138971713448.18 5232612262162108.0" pbc="T T T"
Si       1.54398727       0.89852498       0.48297925
Si      -1.23226556      -0.10062071       1.10509099
Si       1.88790811       0.33254256      -0.08955895
Si       1.55302397       0.95499115       1.59811867
Si      -3.85937010      -0.01640943       0.73541656
Si      -0.98088241       1.09370832      -0.22110660
Si      -4.20329094       0.54957299       1.30795476
Si       2.94255714       1.50431341      -1.45795799
Si       3.13972312       1.01567485      -0.35577539
Si      -4.74443125       0.35182257       0.96243638
Si       1.35585798       1.44362971       0.49593607
Si      -4.76452891       0.47920390       1.53060589
Si       2.14945171       0.54406507       0.11746165
Si       2.83097766       0.50011161      -0.50812373
14
Lattice="7.1997248900371025 0.02634232125628267 -1.2822454393449934 -0.4929918677383223 1.406722814942928 0.5394299467103899 -7.301926014547161 -0.13629955225620058 1.6185923272632108" Properties=species:S:1:pos:R:3 unique_starting_index=10 config_type=initial n_minim_iter=21 stress="4506950726273117.0 -234103445163243.3 -351507209141903.1 -234103445163243.3 5486980144041853.0 -49394836654437.75 -351507209141903.1 -49394836654437.75 5285576681516927.0" pbc="T T T"
Si       1.53972827       0.87561336       0.51499446
Si      -1.24366233      -0.08320697       1.14267557
Si       1.87566995       0.33461694      -0.08208042
Si       1.54195791       0.92392449       1.62066834
Si      -3.86270507       0.00790733       0.71465969
Si      -0.97711335       1.07668489      -0.24936830
Si      -4.19864676       0.54890374       1.31173457
Si       2.94399943       1.50261856      -1.47017657
Si       3.13020417       0.99510098      -0.35214584
Si      -4.75451673       0.37053738       0.96953242
Si       1.35575317       1.43144207       0.50263761
Si      -4.76818497       0.48664098       1.54236717
Si       2.12745994       0.53232719       0.15882265
Si       2.85148926       0.48749305      -0.54776083
