20
Lattice="8.004112665205309 -3.382293454641925e-19 -3.667545835037681e-20 1.7145493583613222e-19 4.057438072248982 1.1937591752458201e-14 7.371990015342897e-20 -4.7335525614061055e-14 16.08875288911256" Properties=species:S:1:pos:R:3 unique_starting_index=4 config_type=initial n_minim_iter=1 energy=-3276.56188796497 free_energy=-3276.56188796497 pbc="T T T"
Si       4.82829552       2.22332299       9.71564114
Si       4.82829552       1.83411508       6.37311175
Si       3.54459773       1.55794090       9.03572837
Si       3.54459773       2.49949717       7.05302452
Si       3.17581715       0.19460396      14.41748819
Si       3.17581715       3.86283412       1.67126470
Si       4.45951494       3.58665994      15.09740097
Si       4.45951494       0.47077814       0.99135192
Si       4.18924739       3.36656117       3.17389151
Si       4.18924739       0.69087690      12.91486138
Si       3.88075822       3.29474261      12.91429393
Si       3.88075822       0.76269546       3.17445896
Si       3.81486528       1.33784214       4.87048494
Si       3.81486528       2.71959593      11.21826795
Si       4.12335444       1.26602358      11.21883541
Si       4.12335444       2.79141449       4.86991748
Si       7.95266389       2.26493775      15.15266583
Si       7.95266389       1.79250032       0.93608706
Si       0.05144877       3.82121936       7.10828938
Si       0.05144877       0.23621871       8.98046351
20
Lattice="8.061884543854012 -3.4432950424021756e-19 -3.66642462534438e-20 1.7208987211738397e-19 4.116356213194968 1.2121708939373469e-14 7.445596631674006e-20 -4.740931494896385e-14 16.12834968716021" Properties=species:S:1:pos:R:3 unique_starting_index=4 config_type=initial n_minim_iter=2 stress="0.0441538643716177 2.779556926939393e-17 -1.0184794411397329e-16 2.779556926939393e-17 0.12947010602450618 1.916649701859701e-16 -1.0184794411397329e-16 1.916649701859701e-16 0.07028012942592976" pbc="T T T"
Si       4.84933300       2.23500564       9.71287547
Si       4.84933300       1.88135057       6.41547422
Si       3.59750062       1.60471909       9.06367611
Si       3.59750062       2.51163712       7.06467357
Si       3.21255154       0.17682754      14.47964906
Si       3.21255154       3.93952868       1.64870062
Si       4.46438392       3.66289720      15.12884842
Si       4.46438392       0.45345902       0.99950127
Si       4.20660173       3.42217867       3.20132235
Si       4.20660173       0.69417754      12.92702733
Si       3.90410882       3.35233216      12.94174610
Si       3.90410882       0.76402405       3.18660358
Si       3.85528282       1.36400057       4.86285249
Si       3.85528282       2.75235565      11.26549720
Si       4.15777573       1.29415406      11.25077843
Si       4.15777573       2.82220216       4.87757126
Si       8.01617635       2.27428175      15.20635910
Si       8.01617635       1.84207446       0.92199059
Si       0.04570819       3.90025257       7.14218425
Si       0.04570819       0.21610365       8.98616543
20
Lattice="8.33755969061342 -3.561389678915562e-19 -6.236164416599537e-20 1.7291745501418658e-19 4.1377550122833675 1.229708380838258e-14 1.873216830645799e-20 -4.363094403233654e-14 15.002908076715608" Properties=species:S:1:pos:R:3 unique_starting_index=4 config_type=initial n_minim_iter=3 stress="-0.3075253920482222 -6.254874085878631e-16 1.486497853742761e-16 -6.254874085878631e-16 -0.04679919597502767 1.1939173237997414e-15 1.486497853742761e-16 1.1939173237997414e-15 -0.1166617540905101" pbc="T T T"
Si       4.81052026       1.95287356       8.68522878
Si       4.81052026       2.18488145       6.31767930
Si       4.12250925       1.95883777       8.50641586
Si       4.12250925       2.17891724       6.49649222
Si       3.52703943      -0.11600395      13.81913334
Si       3.52703943       4.25375896       1.18377474
Si       4.21505044       4.02771528      13.99794626
Si       4.21505044       0.11003973       1.00496182
Si       4.16109637       3.53433403       3.23545683
Si       4.16109637       0.60342098      11.76745125
Si       3.97015338       3.50649596      11.98168425
Si       3.97015338       0.63125905       3.02122383
Si       4.17646332       1.46545653       4.26599721
Si       4.17646332       2.67229849      10.73691086
Si       4.36740631       1.43761845      10.52267787
Si       4.36740631       2.70013656       4.48023021
Si       8.37954899       1.94999212      14.36211446
Si       8.37954899       2.18776289       0.64079361
Si      -0.04198930       4.25664040       6.86066042
Si      -0.04198930      -0.11888539       8.14224765
20
Lattice="8.50852767383573 -3.614738914946246e-19 -6.667355707970686e-20 1.729730125882401e-19 4.115960330437995 1.18657192021819e-14 9.410674728455494e-21 -4.469356724667189e-14 14.869190355239333" Properties=species:S:1:pos:R:3 unique_starting_index=4 config_type=initial n_minim_iter=4 stress="-0.31643693825396874 -6.383356626861831e-16 -3.121320675259092e-16 -6.383356626861831e-16 -0.18739824946558453 1.0336176662333387e-15 -3.121320675259092e-16 1.0336176662333387e-15 -0.21151382181747191" pbc="T T T"
Si       4.87631814       1.89802951       8.55473505
Si       4.87631814       2.21793082       6.31445530
Si       4.26987989       2.00167560       8.44229863
Si       4.26987989       2.11428473       6.42689172
Si       3.63220954      -0.15995065      13.74905048
Si       3.63220954       4.27591098       1.12013987
Si       4.23864779       4.05965577      13.86148690
Si       4.23864779       0.05630457       1.00770346
Si       4.21666403       3.52991804       3.24553700
Si       4.21666403       0.58604229      11.62365335
Si       4.04115931       3.50839717      11.86619124
Si       4.04115931       0.60756316       3.00299911
Si       4.29186364       1.47193788       4.18905817
Si       4.29186364       2.64402245      10.68013218
Si       4.46736836       1.45041700      10.43759429
Si       4.46736836       2.66554333       4.43159606
Si       8.56426607       1.88846548      14.26714544
Si       8.56426607       2.22749485       0.60204492
Si      -0.05573840       4.28547502       6.83255026
Si      -0.05573840      -0.16951469       8.03664010
20
Lattice="8.635089076785937 -3.5839075346238003e-19 -7.10265662943353e-20 1.7106307811635112e-19 3.9684671201672903 1.1257726118727821e-14 9.580494302096287e-21 -4.815260292355985e-14 15.856955080806122" Properties=species:S:1:pos:R:3 unique_starting_index=4 config_type=initial n_minim_iter=5 stress="-0.2941058186233486 -4.797322535127857e-16 2.6520122021277504e-16 -4.797322535127857e-16 -0.0581414431629348 -1.2912725051962543e-16 2.6520122021277504e-16 -1.2912725051962543e-16 0.031730835195454214" pbc="T T T"
Si       4.90457826       1.80062236       9.08098502
Si       4.90457826       2.16784476       6.77597006
Si       4.40327870       1.97488144       9.01262620
Si       4.40327870       1.99358568       6.84432888
Si       3.73051081      -0.18361120      14.70444760
Si       3.73051081       4.15207832       1.15250748
Si       4.23181038       3.95911500      14.77280642
Si       4.23181038       0.00935212       1.08414866
Si       4.24610227       3.41300936       3.49060219
Si       4.24610227       0.55545776      12.36635289
Si       4.09045959       3.39418487      12.64547935
Si       4.09045959       0.57428226       3.21147574
Si       4.38898681       1.42877580       4.43787535
Si       4.38898681       2.53969132      11.41907973
Si       4.54462949       1.40995130      11.13995328
Si       4.54462949       2.55851582       4.71700181
Si       8.70398077       1.77930102      15.24913081
Si       8.70398077       2.18916610       0.60782427
Si      -0.06889169       4.17339966       7.32065327
Si      -0.06889169      -0.20493254       8.53630181
20
Lattice="9.814698579437112 -4.0921601604703496e-19 -7.274505750057948e-20 1.649184421641009e-19 3.8386438035988384 1.0869570030742774e-14 9.518192072107899e-21 -4.874806558764229e-14 16.075100196320605" Properties=species:S:1:pos:R:3 unique_starting_index=4 config_type=initial n_minim_iter=6 stress="-0.14362493973484985 -3.809318651792675e-16 1.6212518843337061e-15 -3.809318651792675e-16 -0.1385752890578191 -7.442653381269614e-17 1.6212518843337061e-15 -7.442653381269614e-17 0.00525556240452121" pbc="T T T"
Si       5.43646823       1.72711688       9.16713846
Si       5.43646823       2.11152693       6.90796174
Si       5.18749551       1.96541376       9.13475136
Si       5.18749551       1.87323005       6.94034884
Si       4.37823035      -0.19220503      14.94551183
Si       4.37823035       4.03084883       1.12958836
Si       4.62720307       3.88473566      14.97789894
Si       4.62720307      -0.04609186       1.09720126
Si       4.74050178       3.30596074       3.55370307
Si       4.74050178       0.53268307      12.52139713
Si       4.61424555       3.29217722      12.83474074
Si       4.61424555       0.54646658       3.24035946
Si       5.07419680       1.38663884       4.48384703
Si       5.07419680       2.45200497      11.59125317
Si       5.20045303       1.37285532      11.27790956
Si       5.20045303       2.46578849       4.79719064
Si       9.92443672       1.67351483      15.52167921
Si       9.92443672       2.16512898       0.55342099
Si      -0.10973814       4.08445088       7.48412911
Si      -0.10973814      -0.24580707       8.59097109
20
Lattice="10.756283578777115 -4.59376324692653e-19 -7.330709247265197e-20 1.5630218283319189e-19 3.7827266732380194 1.0632592992977205e-14 9.230345199415683e-21 -4.892722288557165e-14 16.044514659899086" Properties=species:S:1:pos:R:3 unique_starting_index=4 config_type=initial n_minim_iter=7 stress="-0.08741129262192618 -3.3660231130796615e-16 8.092996079003582e-16 -3.3660231130796615e-16 -0.36224688384684667 1.7465735693483958e-15 8.092996079003582e-16 1.7465735693483958e-15 -0.3601033455510138" pbc="T T T"
Si       5.89300500       1.77372291       9.20352667
Si       5.89300500       2.00900376       6.84098798
Si       5.68294193       1.90978399       9.09854110
Si       5.68294193       1.87294268       6.94597356
Si       4.86327858      -0.11764043      14.86324531
Si       4.86327858       3.90036710       1.18126934
Si       5.07334165       3.80114733      14.96823089
Si       5.07334165      -0.01842065       1.07628377
Si       5.19284673       3.26117772       3.42733969
Si       5.19284673       0.52154896      12.61717497
Si       5.07140041       3.22638599      12.85508274
Si       5.07140041       0.55634069       3.18943192
Si       5.56343684       1.36981438       4.59491764
Si       5.56343684       2.41291229      11.44959702
Si       5.68488317       1.33502265      11.21168925
Si       5.68488317       2.44770402       4.83282541
Si      10.81824516       1.69100675      15.49465571
Si      10.81824516       2.09171992       0.54985895
Si      -0.06196158       3.98308326       7.47239838
Si      -0.06196158      -0.20035658       8.57211628
20
Lattice="11.501837885588584 -4.98781737244985e-19 -7.461626537534573e-20 1.471107296995013e-19 3.7037565171236633 1.0426304311502124e-14 1.195531091939831e-20 -5.019862716795964e-14 16.54335575509094" Properties=species:S:1:pos:R:3 unique_starting_index=4 config_type=initial n_minim_iter=8 stress="0.007091902547302431 -1.9408227204554695e-16 1.1140872171632278e-15 -1.9408227204554695e-16 -0.4099469883001954 -1.6824733842419402e-16 1.1140872171632278e-15 -1.6824733842419402e-16 -0.1858194489080587" pbc="T T T"
Si       6.19854268       1.76848135       9.48190940
Si       6.19854268       1.93527517       7.06144636
Si       6.13841004       1.87426551       9.34101347
Si       6.13841004       1.82949100       7.20234228
Si       5.30329521      -0.08339691      15.33312423
Si       5.30329521       3.78715343       1.21023152
Si       5.36342784       3.72614377      15.47402016
Si       5.36342784      -0.02238725       1.06933559
Si       5.53261539       3.19674061       3.45789189
Si       5.53261539       0.50701591      13.08546387
Si       5.43102199       3.16070894      13.33181525
Si       5.43102199       0.54304758       3.21154051
Si       5.96922249       1.34486235       4.81378599
Si       5.96922249       2.35889417      11.72956976
Si       6.07081590       1.30883068      11.48321839
Si       6.07081590       2.39492584       5.06013737
Si      11.51591719       1.66756086      16.00278378
Si      11.51591719       2.03619566       0.54057197
Si      -0.01407931       3.88807392       7.73110591
Si      -0.01407931      -0.18431740       8.81224985
20
Lattice="11.809426057665032 -5.317733233373206e-19 -7.303097095221992e-20 1.3955407624842848e-19 3.772843473682984 1.0839716294498228e-14 1.425229941331104e-20 -4.894925709488843e-14 16.39013405394925" Properties=species:S:1:pos:R:3 unique_starting_index=4 config_type=initial n_minim_iter=9 stress="0.008624176418925409 1.4291947440017702e-17 7.644082971804315e-16 1.4291947440017702e-17 -0.0700018757660193 9.59615237413288e-16 7.644082971804315e-16 9.59615237413288e-16 -0.10894041284617649" pbc="T T T"
Si       6.27157117       1.80637784       9.34395910
Si       6.27157117       1.96646563       7.04617495
Si       6.37956185       1.94195937       9.23916333
Si       6.37956185       1.83088411       7.15097072
Si       5.53785489      -0.08004389      15.24124198
Si       5.53785489       3.85288737       1.14889208
Si       5.42986421       3.82838111      15.34603775
Si       5.42986421      -0.05553763       1.04409631
Si       5.65245710       3.27114508       3.38938523
Si       5.65245710       0.50169839      13.00074882
Si       5.60512707       3.22930986      13.23103425
Si       5.60512707       0.54353361       3.15909981
Si       6.15696896       1.38472335       4.80568180
Si       6.15696896       2.38812013      11.58445226
Si       6.20429899       1.34288812      11.35416684
Si       6.20429899       2.42995535       5.03596722
Si      11.78589443       1.68541498      15.88782975
Si      11.78589443       2.08742849       0.50230431
Si       0.02353163       3.97385023       7.69276272
Si       0.02353163      -0.20100676       8.69737133
20
Lattice="12.422705717963595 -5.776905461920787e-19 -6.916429281410249e-20 1.2610465651943465e-19 3.7620323293828455 1.0984330480841602e-14 2.6008592845083792e-20 -4.919570360100872e-14 16.717492932720983" Properties=species:S:1:pos:R:3 unique_starting_index=4 config_type=initial n_minim_iter=10 stress="0.009655690435007264 1.961102481437034e-17 6.405960272872242e-16 1.961102481437034e-17 0.14073126608355074 6.675954579791116e-16 6.405960272872242e-16 6.675954579791116e-16 0.02870980731016531" pbc="T T T"
Si       6.52521191       1.85948966       9.45330750
Si       6.52521191       1.90254267       7.26418544
Si       6.71306711       1.91160702       9.35202999
Si       6.71306711       1.85042531       7.36546294
Si       5.89749381      -0.02152650      15.62293190
Si       5.89749381       3.78355883       1.09456103
Si       5.70963861       3.79262319      15.72420941
Si       5.70963861      -0.03059086       0.99328352
Si       5.94928427       3.29915693       3.29620920
Si       5.94928427       0.46287540      13.42128374
Si       6.04387194       3.25499106      13.51138639
Si       6.04387194       0.50704127       3.20610655
Si       6.47342145       1.41814077       5.06253727
Si       6.47342145       2.34389156      11.65495566
Si       6.37883378       1.37397490      11.56485301
Si       6.37883378       2.38805743       5.15263992
Si      12.32542560       1.72607872      16.22061088
Si      12.32542560       2.03595361       0.49688205
Si       0.09728012       3.91696978       7.86186441
Si       0.09728012      -0.15493745       8.85562852
20
Lattice="12.66089988095059 -6.014380173191068e-19 -5.6723947776871e-20 1.146400583703671e-19 3.7104323265792347 1.0974671739537722e-14 5.430418236629639e-20 -4.9612170308557046e-14 17.055594280154462" Properties=species:S:1:pos:R:3 unique_starting_index=4 config_type=initial n_minim_iter=11 stress="0.005665390018148934 1.1090829400518513e-18 5.160169149344776e-16 1.1090829400518513e-18 0.034981644562165744 8.365183259582643e-16 5.160169149344776e-16 8.365183259582643e-16 0.03388443757933324" pbc="T T T"
Si       6.66085743       1.88046207       9.59444798
Si       6.66085743       1.82997025       7.46114630
Si       6.73296272       1.83397614       9.49476172
Si       6.73296272       1.87645619       7.56083256
Si       6.00004245       0.02524591      15.98894344
Si       6.00004245       3.68518642       1.06665084
Si       5.92793716       3.68919230      16.08862970
Si       5.92793716       0.02124003       0.96696458
Si       6.15923700       3.32001864       3.28426053
Si       6.15923700       0.39041369      13.77133375
Si       6.25247664       3.28769428      13.76250343
Si       6.25247664       0.42273804       3.29309085
Si       6.50166288       1.46480247       5.24353661
Si       6.50166288       2.24562985      11.81205767
Si       6.40842324       1.43247812      11.82088799
Si       6.40842324       2.27795421       5.23470629
Si      12.51931819       1.76530344      16.54585391
Si      12.51931819       1.94512889       0.50974037
Si       0.14158169       3.80034505       8.01805677
Si       0.14158169      -0.08991272       9.03753751
20
Lattice="12.612878330691732 -6.138704097015523e-19 -3.5976077706294145e-20 1.0637482912125616e-19 3.6905954622195773 1.1475487051724018e-14 9.600150736104805e-20 -4.7596029046056876e-14 17.12266886849992" Properties=species:S:1:pos:R:3 unique_starting_index=4 config_type=initial n_minim_iter=12 stress="0.0041842576260394965 -1.5112862350054323e-17 1.2731345869695244e-15 -1.5112862350054323e-17 -0.04282833792778375 1.0712299304851055e-15 1.2731345869695244e-15 1.0712299304851055e-15 0.035949962116807774" pbc="T T T"
Si       6.62955283       1.87208127       9.62147395
Si       6.62955283       1.81851419       7.50119492
Si       6.64393306       1.81174042       9.51189596
Si       6.64393306       1.87885505       7.61077291
Si       5.98332550       0.02678354      16.06252935
Si       5.98332550       3.66381192       1.06013952
Si       5.96894527       3.65703815      16.17210734
Si       5.96894527       0.03355731       0.95056152
Si       6.19095359       3.35646867       3.32821025
Si       6.19095359       0.33412679      13.79445862
Si       6.24789182       3.33218360      13.77410274
Si       6.24789182       0.35841186       3.34856613
Si       6.42192474       1.51117094       5.23312419
Si       6.42192474       2.17942452      11.88954468
Si       6.36498651       1.48688587      11.90990056
Si       6.36498651       2.20370959       5.21276831
Si      12.46541603       1.78310754      16.62065824
Si      12.46541603       1.90748792       0.50201062
Si       0.14746230       3.75278565       8.05932381
Si       0.14746230      -0.06219019       9.06334506
20
Lattice="12.715989999865426 -6.596029987965632e-19 3.4602132016251323e-19 7.989712418815631e-20 3.627764229533263 1.1901519721741115e-14 8.629039829128923e-19 -4.622759240107856e-14 17.459025047801983" Properties=species:S:1:pos:R:3 unique_starting_index=4 config_type=initial n_minim_iter=13 stress="0.0014321019245201194 -5.652126788724207e-18 4.0162055669276786e-16 -5.652126788724207e-18 -0.31901859993084525 -2.4587375268319047e-16 4.0162055669276786e-16 -2.4587375268319047e-16 0.06876957368196111" pbc="T T T"
Si       6.53955061       1.80140165       9.74091452
Si       6.53955061       1.82636258       7.71811053
Si       6.50612536       1.79966345       9.73015285
Si       6.50612536       1.82810078       7.72887220
Si       6.17643939      -0.01248046      16.44762306
Si       6.17643939       3.64024469       1.01140199
Si       6.20986464       3.61354556      16.45838472
Si       6.20986464       0.01421867       1.00064033
Si       6.33458665       3.55861290       3.44695824
Si       6.33458665       0.06915133      14.01206681
Si       6.31999881       3.55953232      14.00591703
Si       6.31999881       0.06823191       3.45310802
Si       6.38140335       1.74473079       5.28255428
Si       6.38140335       1.88303344      12.17647077
Si       6.39599119       1.74565020      12.18262054
Si       6.39599119       1.88211403       5.27640451
Si      12.55008945       1.81798754      17.03582652
Si      12.55008945       1.80977669       0.42319853
Si       0.16590055       3.62365881       8.30631400
Si       0.16590055       0.00410542       9.15271105
20
Lattice="12.732243770864288 -6.675935648993843e-19 5.700947858006823e-19 7.563868748789822e-20 3.623051497915405 1.2699475106452138e-14 1.3124599771315447e-18 -4.3147812745272863e-14 17.499822248953937" Properties=species:S:1:pos:R:3 unique_starting_index=4 config_type=initial n_minim_iter=14 stress="0.0013918887973622797 -2.6664187874868344e-17 3.720869658729383e-16 -2.6664187874868344e-17 -0.30750386544874003 2.4284858557794546e-15 3.720869658729383e-16 2.4284858557794546e-15 0.08939964398280668" pbc="T T T"
Si       6.53148629       1.79510608       9.76044124
Si       6.53148629       1.82794542       7.73938101
Si       6.48500128       1.79852076       9.75609151
Si       6.48500128       1.82453074       7.74373074
Si       6.20075748      -0.01641967      16.48929214
Si       6.20075748       3.63947116       1.01053011
Si       6.24724249       3.61004651      16.49364187
Si       6.24724249       0.01300499       1.00618038
Si       6.35938600       3.58677109       3.45646312
Si       6.35938600       0.03628041      14.04335912
Si       6.33315346       3.59050927      14.03810832
Si       6.33315346       0.03254223       3.46171393
Si       6.37285777       1.77524534       5.29344800
Si       6.37285777       1.84780616      12.20637425
Si       6.39909031       1.77898352      12.21162506
Si       6.39909031       1.84406798       5.28819719
Si      12.56117612       1.82515307      17.08519549
Si      12.56117612       1.79789842       0.41462676
Si       0.17106765       3.60942417       8.33528437
Si       0.17106765       0.01362732       9.16453788
20
Lattice="12.546161404773434 -6.812492769671924e-19 1.1734009022613648e-18 6.954524970954663e-20 3.654707584053087 1.1422520474953531e-14 2.5045476876713786e-18 -4.8237373252431215e-14 17.413731440251485" Properties=species:S:1:pos:R:3 unique_starting_index=4 config_type=initial n_minim_iter=15 stress="0.0027508117465773396 -1.433556431379922e-16 3.863047381019453e-16 -1.433556431379922e-16 -0.04767842946131231 2.256906351297892e-15 3.863047381019453e-16 2.256906351297892e-15 0.12305740294504998" pbc="T T T"
Si       6.43017672       1.79334823       9.76776645
Si       6.43017672       1.86135936       7.64596499
Si       6.27740301       1.81549450       9.74586265
Si       6.27740301       1.83921309       7.66786879
Si       6.11598469      -0.03400557      16.35283071
Si       6.11598469       3.68871315       1.06090073
Si       6.26875840       3.64284829      16.37473451
Si       6.26875840       0.01185930       1.03899693
Si       6.32575581       3.64264088       3.44124796
Si       6.32575581       0.01206670      13.97248348
Si       6.24181423       3.64812187      14.00486547
Si       6.24181423       0.00658572       3.40886597
Si       6.22040560       1.81528709       5.26561776
Si       6.22040560       1.83942049      12.14811368
Si       6.30434717       1.82076807      12.11573169
Si       6.30434717       1.83393951       5.29799975
Si      12.36876066       1.86327706      17.00319329
Si      12.36876066       1.79143053       0.41053815
Si       0.17740075       3.61878432       8.29632757
Si       0.17740075       0.03592326       9.11740387
20
Lattice="12.728793827243653 -6.911115565809247e-19 1.7177508086845167e-18 6.614553921239152e-20 3.6546835296055904 1.1407649463991258e-14 3.6579974529727865e-18 -4.811976696151595e-14 17.356654814415645" Properties=species:S:1:pos:R:3 unique_starting_index=4 config_type=initial n_minim_iter=16 stress="0.0011532673437764816 -7.903757067468539e-17 1.7664976820156099e-16 -7.903757067468539e-17 -0.09618110323929425 1.432283515243232e-15 1.7664976820156099e-16 1.432283515243232e-15 0.06346728302610584" pbc="T T T"
Si       6.46177069       1.79216208       9.72623009
Si       6.46177069       1.86252144       7.63042472
Si       6.39624263       1.83110309       9.71677740
Si       6.39624263       1.82358044       7.63987742
Si       6.26702314      -0.03517968      16.30875213
Si       6.26702314       3.68986321       1.04790269
Si       6.33255120       3.65844485      16.31820482
Si       6.33255120      -0.00376132       1.03844999
Si       6.41715932       3.65554560       3.40159870
Si       6.41715932      -0.00086207      13.95505611
Si       6.33952022       3.65787996      13.96211806
Si       6.33952022      -0.00319643       3.39453675
Si       6.31163451       1.82820383       5.27672871
Si       6.31163451       1.82647970      12.07992611
Si       6.38927360       1.83053820      12.07286416
Si       6.38927360       1.82414533       5.28379065
Si      12.54831672       1.85822127      16.96809398
Si      12.54831672       1.79646226       0.38856084
Si       0.18047710       3.62380403       8.28976657
Si       0.18047710       0.03087950       9.06688824
20
Lattice="12.989637953973459 -7.129138375879687e-19 2.875968469344908e-18 6.134298681774634e-20 3.7028073814295275 1.2597600507930762e-14 6.212328479692855e-18 -4.279384675192208e-14 17.014783393773513" Properties=species:S:1:pos:R:3 unique_starting_index=4 config_type=initial n_minim_iter=17 stress="0.00012314584704154692 3.2428300927677297e-17 1.9980165240502318e-17 3.2428300927677297e-17 0.017334353641467622 3.447829265851827e-15 1.9980165240502318e-17 3.447829265851827e-15 0.05045580989595539" pbc="T T T"
Si       6.48857703       1.85819241       9.53276596
Si       6.48857703       1.84461497       7.48201744
Si       6.52101651       1.85296522       9.51927285
Si       6.52101651       1.84984216       7.49551054
Si       6.50106092       0.00678872      15.98940913
Si       6.50106092       3.69601866       1.02537426
Si       6.46862144       3.70436891      16.00290224
Si       6.46862144      -0.00156153       1.01188116
Si       6.48145875       3.70580909       3.31419261
Si       6.48145875      -0.00300171      13.70059079
Si       6.50452938       3.69367009      13.70447599
Si       6.50452938       0.00913729       3.31030740
Si       6.50817921       1.85440540       5.19319909
Si       6.50817921       1.84840198      11.82158430
Si       6.48510858       1.84226640      11.81769910
Si       6.48510858       1.86054098       5.19708429
Si      12.78356853       1.87099479      16.66970706
Si      12.78356853       1.83181259       0.34507633
Si       0.20606943       3.68321628       8.16231537
Si       0.20606943       0.01959110       8.85246803
20
Lattice="13.01192163743223 -7.213154084115349e-19 3.779370910506494e-18 5.880922591608206e-20 3.720643987378535 1.2875414992154436e-14 8.1286810300513e-18 -4.130779528932092e-14 16.849149668334107" Properties=species:S:1:pos:R:3 unique_starting_index=4 config_type=initial n_minim_iter=18 stress="4.601007862081356e-05 1.610158416984636e-17 -3.546703712594663e-17 1.610158416984636e-17 0.010551432404338717 4.094050783222287e-15 -3.546703712594663e-17 4.094050783222287e-15 -0.00688963163351502" pbc="T T T"
Si       6.48510452       1.86456089       9.45864993
Si       6.48510452       1.85608310       7.39049974
Si       6.50479691       1.85790838       9.45201320
Si       6.50479691       1.86273560       7.39713647
Si       6.52681712       0.00423889      15.81507457
Si       6.52681712       3.71640509       1.03407510
Si       6.50712472       3.71823038      15.82171131
Si       6.50712472       0.00241361       1.02743836
Si       6.50048173       3.72473156       3.27529740
Si       6.50048173      -0.00408758      13.57385227
Si       6.51089181       3.71475462      13.57338528
Si       6.51089181       0.00588937       3.27576439
Si       6.51143990       1.86440957       5.14927744
Si       6.51143990       1.85623442      11.69987223
Si       6.50102983       1.85443263      11.70033922
Si       6.50102983       1.86621136       5.14881044
Si      12.80657565       1.87689863      16.52807786
Si      12.80657565       1.84374535       0.32107181
Si       0.20534598       3.70406735       8.10350303
Si       0.20534598       0.01657664       8.74564664
20
Lattice="12.972429964130555 -7.249449727613158e-19 5.188878011438031e-18 5.632959586129755e-20 3.7167047413472782 1.2896152623451005e-14 1.0912314718976477e-17 -4.1248782943502456e-14 16.86716319654229" Properties=species:S:1:pos:R:3 unique_starting_index=4 config_type=initial n_minim_iter=19 stress="1.600420643205089e-05 -9.599559632889738e-19 -1.2203540886719753e-16 -9.599559632889738e-19 0.015080871286755252 3.784891969276022e-15 -1.2203540886719753e-16 3.784891969276022e-15 0.0005496695150436416" pbc="T T T"
Si       6.46986604       1.85784841       9.48780047
Si       6.46986604       1.85885633       7.37936272
Si       6.46995052       1.85531588       9.49517179
Si       6.46995052       1.86138887       7.37199140
Si       6.50256393      -0.00050396      15.81294432
Si       6.50256393       3.71720871       1.05421888
Si       6.50247945       3.71366825      15.80557300
Si       6.50247945       0.00303650       1.06159020
Si       6.49684521       3.72111287       3.27387547
Si       6.49684521      -0.00440813      13.59328772
Si       6.49175928       3.71541253      13.59595666
Si       6.49175928       0.00129222       3.27120654
Si       6.47558476       1.86276050       5.15970612
Si       6.47558476       1.85394424      11.70745707
Si       6.48067069       1.85706016      11.70478813
Si       6.48067069       1.85964459       5.16237506
Si      12.77422418       1.87262844      16.56735221
Si      12.77422418       1.84407630       0.29981098
Si       0.19820578       3.70242867       8.13377062
Si       0.19820578       0.01427607       8.73339258
20
Lattice="12.959653810163308 -7.289779761830158e-19 7.073768494671586e-18 5.393891567489791e-20 3.7138409803368124 1.2255332465532913e-14 1.467427117762973e-17 -4.3800898644328684e-14 16.87859946619806" Properties=species:S:1:pos:R:3 unique_starting_index=4 config_type=initial n_minim_iter=20 stress="1.0208275330543396e-05 3.201975693255497e-18 -3.4232258859923007e-17 3.201975693255497e-18 0.0008019001058481667 3.404823358913861e-15 -3.4232258859923007e-17 3.404823358913861e-15 -0.008243572460809622" pbc="T T T"
Si       6.46603653       1.85205928       9.50618009
Si       6.46603653       1.86178170       7.37241937
Si       6.47329297       1.85808351       9.51654367
Si       6.47329297       1.85575747       7.36205580
Si       6.49361728      -0.00486121      15.81171911
Si       6.49361728       3.71870219       1.06688036
Si       6.48636084       3.71500400      15.80135553
Si       6.48636084      -0.00116302       1.07724393
Si       6.48005077       3.71713758       3.27813846
Si       6.48005077      -0.00329660      13.60046100
Si       6.48022124       3.71378125      13.60094117
Si       6.48022124       0.00005973       3.27765829
Si       6.47960304       1.86021709       5.16116127
Si       6.47960304       1.85362389      11.71743819
Si       6.47943257       1.85686076      11.71695803
Si       6.47943257       1.85698022       5.16164144
Si      12.76726467       1.86463799      16.59499460
Si      12.76726467       1.84920299       0.28360486
Si       0.19238914       3.70612348       8.15569487
Si       0.19238914       0.00771750       8.72290460
20
Lattice="12.952430721698434 -7.353384380777725e-19 1.2050862837925596e-17 5.012501502079991e-20 3.707870433410451 1.1871266014962229e-14 2.45922353613388e-17 -4.541801247122695e-14 16.930242946264972" Properties=species:S:1:pos:R:3 unique_starting_index=4 config_type=initial n_minim_iter=21 stress="3.932222701605033e-06 -3.350925856777633e-18 -1.3299969099484333e-17 -3.350925856777633e-18 0.0038652817064257937 2.9141275244173394e-15 -1.3299969099484333e-17 2.9141275244173394e-15 0.008180676397534215" pbc="T T T"
Si       6.48010098       1.85356130       9.54511379
Si       6.48010098       1.85430913       7.38512916
Si       6.47347740       1.85584673       9.54923806
Si       6.47347740       1.85202371       7.38100489
Si       6.47232975      -0.00037391      15.85025063
Si       6.47232975       3.70824435       1.07999232
Si       6.47895333       3.70978194      15.84612636
Si       6.47895333      -0.00191151       1.08411659
Si       6.47808924       3.70927945       3.28802784
Si       6.47808924      -0.00140901      13.64221510
Si       6.47689660       3.70738446      13.63745383
Si       6.47689660       0.00048598       3.29278912
Si       6.47434148       1.85534423       5.17709363
Si       6.47434148       1.85252620      11.75314932
Si       6.47553412       1.85344924      11.75791059
Si       6.47553412       1.85442119       5.17233235
Si      12.76250393       1.85690994      16.67475907
Si      12.76250393       1.85096049       0.25548388
Si       0.18992679       3.70489571       8.20963760
Si       0.18992679       0.00297473       8.72060535
