14
Lattice="4.638616653304424 0.103635147848749 3.1318415293744347e-16 -0.028064471588264864 4.186217142358298 7.556578465912548e-15 -8.720575670911489e-16 -3.1897094991444293e-14 17.667993370838268" Properties=species:S:1:pos:R:3 unique_starting_index=0 config_type=initial n_minim_iter=1 energy=-2275.526466506545 free_energy=-2275.526466506545 pbc="T T T"
Si       1.14354298       1.09878888      13.90114655
Si       1.16173311       1.04613727       5.06714986
Si       3.46700920       3.19106342       3.76684682
Si       3.44881907       3.24371502      12.60084351
Si       3.74067800       1.17619222       6.21531806
Si       3.20321474       1.07236907      15.04931474
Si       0.86987418       3.11366007      11.45267531
Si       1.40733744       3.21748322       2.61867863
Si       1.97484737       1.09336039       6.63798291
Si       0.33042872       1.05156575      15.47197960
Si       2.63570481       3.19649190      11.03001046
Si       4.28012346       3.23828654       2.19601378
Si       2.31930833       0.05181757      -0.00000000
Si      -0.01403224       2.09310857       8.83399669
14
Lattice="4.654717716054447 0.10034742163760071 3.0741982452735493e-16 -0.030723655240969892 4.168075902576502 7.521414433572892e-15 -8.778316712417251e-16 -3.21589498763249e-14 17.80770795699164" Properties=species:S:1:pos:R:3 unique_starting_index=0 config_type=initial n_minim_iter=2 stress="0.01657401378847764 -7.310435756864217e-05 -1.785116098561081e-15 -7.310435756864217e-05 0.012801034973538204 -4.703761641996801e-16 -1.785116098561081e-15 -4.703761641996801e-16 0.015964985715721268" pbc="T T T"
Si       1.14571226       1.09179498      14.01572521
Si       1.16628477       1.04241668       5.11187123
Si       3.47828180       3.17662834       3.79198275
Si       3.45770929       3.22600664      12.69583673
Si       3.75882975       1.16901246       6.26292155
Si       3.20788499       1.06554663      15.16677553
Si       0.86516431       3.09941087      11.54478641
Si       1.41610907       3.20287670       2.64093243
Si       1.97702254       1.08930121       6.69036813
Si       0.33497449       1.04491045      15.59422210
Si       2.64697152       3.17912211      11.11733983
Si       4.28901957       3.22351287       2.21348585
Si       2.32735886       0.05017371      -0.00000000
Si      -0.01536183       2.08403795       8.90385398
14
Lattice="4.6565231447184745 0.09636644225680874 4.22969173943171e-16 -0.03360375901818707 4.135690990178512 7.456817270781757e-15 -4.047683557514659e-16 -3.2362201049990995e-14 17.907889466261867" Properties=species:S:1:pos:R:3 unique_starting_index=0 config_type=initial n_minim_iter=3 stress="-0.00041972761176823725 0.0004277242187379029 4.325957257665973e-16 0.0004277242187379029 -0.008106241716927762 5.059825006734308e-16 4.325957257665973e-16 5.059825006734308e-16 0.0041099514680866455" pbc="T T T"
Si       1.14406874       1.08069627      14.10040653
Si       1.16739095       1.03533245       5.14646179
Si       3.47885065       3.15136116       3.80748294
Si       3.45552843       3.19672499      12.76142767
Si       3.76678028       1.15762117       6.29612312
Si       3.20120256       1.05477399      15.25006785
Si       0.85613910       3.07443626      11.61176635
Si       1.42171683       3.17728345       2.65782161
Si       1.97208636       1.08176576       6.72788943
Si       0.33937333       1.03426295      15.68183416
Si       2.65083302       3.15029167      11.18000004
Si       4.28354606       3.19779448       2.22605531
Si       2.32826157       0.04818322      -0.00000000
Si      -0.01680188       2.06784550       8.95394473
14
Lattice="4.658528082679918 0.08974370279734367 4.2568582177043105e-16 -0.040083403078830765 4.157653537783327 7.495424776593646e-15 -3.4706047081206917e-16 -3.2306563046661675e-14 17.8750438137629" Properties=species:S:1:pos:R:3 unique_starting_index=0 config_type=initial n_minim_iter=4 stress="-0.012726159628302536 -0.0004344179378850799 -8.336020934983879e-16 -0.0004344179378850799 0.006420341434135725 5.706968178565886e-16 -8.336020934983879e-16 5.706968178565886e-16 0.008660581214910696" pbc="T T T"
Si       1.14020253       1.08207467      14.08336253
Si       1.16901981       1.04162395       5.14584062
Si       3.47824215       3.16532257       3.79168128
Si       3.44942487       3.20577329      12.72920319
Si       3.77708687       1.15863263       6.28210104
Si       3.19066356       1.05480970      15.21962294
Si       0.84135781       3.08876462      11.59294278
Si       1.42778112       3.19258754       2.65542087
Si       1.96433190       1.08801470       6.71633688
Si       0.34489044       1.03568392      15.65385878
Si       2.65411278       3.15938254      11.15870694
Si       4.27355424       3.21171332       2.22118503
Si       2.32926404       0.04487185      -0.00000000
Si      -0.02004170       2.07882677       8.93752191
14
Lattice="4.969871955070016 0.041746621740493664 4.0316020891833497e-16 -0.08652615914325812 4.213293318894302 6.6173738558886745e-15 3.0403482287493013e-17 -3.4683346159610695e-14 16.90573080269022" Properties=species:S:1:pos:R:3 unique_starting_index=0 config_type=initial n_minim_iter=5 stress="0.013079658690961614 -0.016985352058501744 -8.654531377333622e-16 -0.016985352058501744 0.025123618712162534 4.734906659338322e-16 -8.654531377333622e-16 4.734906659338322e-16 -0.005020306961741835" pbc="T T T"
Si       1.17372294       1.06308224      13.38767682
Si       1.26794996       1.06443773       4.93481142
Si       3.70962286       3.19195770       3.51805398
Si       3.61539584       3.19060221      11.97091938
Si       4.10106010       1.13979017       5.92497849
Si       3.31048476       1.02947643      14.37784389
Si       0.78228570       3.11524977      10.98075232
Si       1.57286104       3.22556352       2.52788691
Si       2.02548488       1.11338851       6.36005280
Si       0.41618802       1.01413146      14.81291820
Si       2.85786092       3.14165143      10.54567800
Si       4.46715778       3.24090848       2.09281260
Si       2.48493598       0.02087331      -0.00000000
Si      -0.04326308       2.10664666       8.45286540
14
Lattice="5.110849975787829 0.10555941934863035 5.202616340401687e-16 -0.02991131796781823 4.218727850548739 6.620691110629069e-15 1.021643725847008e-17 -3.42437819910539e-14 16.604812043940452" Properties=species:S:1:pos:R:3 unique_starting_index=0 config_type=initial n_minim_iter=6 stress="0.04274596295580486 -0.008918519015283474 2.6788708237327895e-16 -0.008918519015283474 0.03857325885500642 -4.092719314036206e-17 2.6788708237327895e-16 -4.092719314036206e-17 -0.005047631047342588" pbc="T T T"
Si       1.20757793       1.06919005      13.17995332
Si       1.33289140       1.09295358       4.87754730
Si       3.87336073       3.25509722       3.42485872
Si       3.74804726       3.23133369      11.72726475
Si       4.27647558       1.19703625       5.81464248
Si       3.37484373       1.07066681      14.11704850
Si       0.80446308       3.12725102      10.79016957
Si       1.70609493       3.25362046       2.48776354
Si       2.06811655       1.15610504       6.24948769
Si       0.47235277       1.00603860      14.55189371
Si       3.01282210       3.16818223      10.35532436
Si       4.60858588       3.31824867       2.05291834
Si       2.55542499       0.05277971      -0.00000000
Si      -0.01495566       2.10936393       8.30240602
14
Lattice="5.072984041359216 0.21201050895144333 7.89168993017532e-16 0.06837438011629526 4.129765635054546 3.821659743803536e-15 4.19710079536335e-16 -4.6013025274980354e-14 17.065906515852372" Properties=species:S:1:pos:R:3 unique_starting_index=0 config_type=initial n_minim_iter=7 stress="-0.01851575529704037 0.01036433611610706 -5.531113530912711e-16 0.01036433611610706 -0.02035731708700358 -7.923786238105289e-16 -5.531113530912711e-16 -7.923786238105289e-16 -0.0071255740862811905" pbc="T T T"
Si       1.22338450       1.06988288      13.54537544
Si       1.34729472       1.10100519       5.01242218
Si       3.91797393       3.27189327       3.52053107
Si       3.79406371       3.24077095      12.05348433
Si       4.28432494       1.26390922       5.98926338
Si       3.35933832       1.11898937      14.52221664
Si       0.85703349       3.07786693      11.07664314
Si       1.78202011       3.22278678       2.54368988
Si       2.07280479       1.17844944       6.42016377
Si       0.49787442       0.99243863      14.95311703
Si       3.06855363       3.16332670      10.64574274
Si       4.64348400       3.34933751       2.11278948
Si       2.53649202       0.10600525       0.00000000
Si       0.03418719       2.06488282       8.53295326
14
Lattice="5.166313734795503 0.14239624723428845 5.189469747670665e-16 0.00558654357498331 4.102835002588893 3.764377240594199e-15 1.0670516860574031e-16 -4.588655965973783e-14 16.983095029191986" Properties=species:S:1:pos:R:3 unique_starting_index=0 config_type=initial n_minim_iter=8 stress="0.00613144979717862 0.002245789039093006 1.0350630697238227e-15 0.002245789039093006 -0.0120971062685014 -9.067596617961975e-16 1.0350630697238227e-15 -9.067596617961975e-16 0.001989058012077806" pbc="T T T"
Si       1.23446116       1.03900522      13.49313494
Si       1.35148898       1.08361040       5.00158743
Si       3.93743912       3.20622603       3.48996009
Si       3.82041130       3.16162085      11.98150760
Si       4.38950480       1.20274344       5.96881141
Si       3.36275907       1.06226843      14.46035892
Si       0.78239548       3.04248781      11.01428362
Si       1.80914121       3.18296282       2.52273611
Si       2.07533505       1.15018225       6.38273749
Si       0.51061509       0.97243337      14.87428500
Si       3.09656523       3.09504900      10.60035754
Si       4.66128519       3.27279788       2.10881003
Si       2.58315687       0.07119812      -0.00000000
Si       0.00279327       2.05141750       8.49154751
14
Lattice="5.157862820278217 0.07890734699305131 3.3288593186807574e-16 -0.05231272475421907 4.132085293246978 3.852554224996562e-15 4.545966463520754e-17 -4.5683098877460415e-14 16.81704677340811" Properties=species:S:1:pos:R:3 unique_starting_index=0 config_type=initial n_minim_iter=9 stress="0.001354211638090538 -0.010022541421042641 3.3323422385611473e-16 -0.010022541421042641 0.007300318390305014 -6.90005437501323e-16 3.3323422385611473e-16 -6.90005437501323e-16 0.003963825508495167" pbc="T T T"
Si       1.24998737       1.03220739      13.33455922
Si       1.30278767       1.07328893       4.92603584
Si       3.85556272       3.17878525       3.48248755
Si       3.80276242       3.13770371      11.89101094
Si       4.37059797       1.15869655       5.93403868
Si       3.34003990       1.02570711      14.34256207
Si       0.73495213       3.05229609      10.88300809
Si       1.76551020       3.18528553       2.47448471
Si       2.07722945       1.12198505       6.30070232
Si       0.47554559       0.98351127      14.70922571
Si       3.02832064       3.08900759      10.51634445
Si       4.63000450       3.22748137       2.10782106
Si       2.57893141       0.03945367      -0.00000000
Si      -0.02615636       2.06604265       8.40852339
14
Lattice="5.200575987770633 0.05064794226481433 2.531696388613793e-16 -0.07843948269343051 4.148424223880904 3.901882214985359e-15 4.0649365475862723e-17 -4.543848175873311e-14 16.588646298941644" Properties=species:S:1:pos:R:3 unique_starting_index=0 config_type=initial n_minim_iter=10 stress="0.01482523125395339 -0.017830129068041774 1.0954823967416161e-15 -0.017830129068041774 0.017483672935900238 -1.8113298972171684e-16 1.0954823967416161e-15 -1.8113298972171684e-16 -0.008627623660637242" pbc="T T T"
Si       1.29117548       1.02593119      13.13253941
Si       1.26989277       1.07360490       4.83821626
Si       3.83096103       3.17314098       3.45610689
Si       3.85224373       3.12546727      11.75043004
Si       4.42603181       1.14191293       5.88102105
Si       3.33561243       1.00827109      14.17534420
Si       0.69610470       3.05715923      10.70762525
Si       1.78652407       3.19080107       2.41330210
Si       2.10058075       1.10712509       6.19080899
Si       0.46048751       0.99241099      14.48513214
Si       3.02155576       3.09194708      10.39783730
Si       4.66164900       3.20666117       2.10351415
Si       2.60028799       0.02532397      -0.00000000
Si      -0.03921974       2.07421211       8.29432315
14
Lattice="5.224431805534216 0.09436477634194916 3.6603914315110255e-16 -0.03904379692680752 4.14453727268385 3.905798567461305e-15 3.635301889143232e-17 -4.5315413764814325e-14 16.522989883813324" Properties=species:S:1:pos:R:3 unique_starting_index=0 config_type=initial n_minim_iter=11 stress="0.013121215062256136 -0.0169243638011185 2.118488444463397e-15 -0.0169243638011185 0.010098335987134 -1.0598647519459526e-15 2.118488444463397e-15 -1.0598647519459526e-15 -0.01207661472774235" pbc="T T T"
Si       1.38176580       1.03203741      13.03919328
Si       1.21092820       1.08741361       4.77769833
Si       3.80362221       3.20686464       3.48379661
Si       3.97445981       3.15148843      11.74529155
Si       4.48783085       1.18100037       5.90466983
Si       3.32929496       1.03281543      14.16616477
Si       0.69755716       3.05790168      10.61832006
Si       1.85609304       3.20608662       2.35682511
Si       2.15655384       1.10485821       6.12172143
Si       0.43614016       1.01459281      14.38321638
Si       3.02883416       3.13404384      10.40126845
Si       4.74924785       3.22430924       2.13977351
Si       2.61221590       0.04718239      -0.00000000
Si      -0.01952190       2.07226864       8.26149494
14
Lattice="5.269893000185166 0.21382698462268773 9.54413283996411e-16 0.06853910238479818 4.142444077479278 2.2130228462129435e-14 -1.3793138761101854e-16 3.153645696259772e-14 16.555971339035366" Properties=species:S:1:pos:R:3 unique_starting_index=0 config_type=initial n_minim_iter=12 stress="0.07758269101680923 -0.005189024959473064 1.3340696341770249e-15 -0.005189024959473064 0.02087229445013965 3.491942636924194e-15 1.3340696341770249e-15 3.491942636924194e-15 0.008721745507536884" pbc="T T T"
Si       1.50511623       1.05668240      13.04073718
Si       1.16409982       1.12145313       4.76275151
Si       3.83331587       3.29958866       3.51523416
Si       4.17433228       3.23481793      11.79321983
Si       4.60953747       1.29234651       5.96507391
Si       3.32957158       1.09961600      14.24305958
Si       0.72889463       3.06392455      10.59089743
Si       2.00886052       3.25665506       2.31291176
Si       2.22854281       1.13345029       6.07934798
Si       0.44067324       1.04468524      14.35733365
Si       3.10988929       3.22282077      10.47662336
Si       4.89775886       3.31158582       2.19863769
Si       2.63494650       0.10691349       0.00000000
Si       0.03426955       2.07122204       8.27798567
14
Lattice="5.203256394769193 0.32256082638810374 8.484562363497687e-16 0.16675882959275096 4.156434805456373 2.2085206526343245e-14 3.2015196922519067e-17 3.052142222751153e-14 16.729940326198204" Properties=species:S:1:pos:R:3 unique_starting_index=0 config_type=initial n_minim_iter=13 stress="0.030823783582077633 0.0023770816449090334 7.917894077918369e-16 0.0023770816449090334 0.011290683390504708 3.818061433376954e-15 7.917894077918369e-16 3.818061433376954e-15 -0.0023704899029476085" pbc="T T T"
Si       1.55333547       1.09334917      13.16826457
Si       1.13167214       1.14614865       4.80329441
Si       3.81667975       3.38564647       3.56167575
Si       4.23834308       3.33284698      11.92664592
Si       4.57614769       1.39465950       6.04094545
Si       3.31211631       1.16739915      14.40591562
Si       0.79386753       3.08433614      10.68899487
Si       2.05789891       3.31159649       2.32402471
Si       2.24876581       1.16867288       6.11746817
Si       0.43624180       1.07082494      14.48243833
Si       3.12124941       3.31032275      10.61247216
Si       4.93377342       3.40817070       2.24750200
Si       2.60162820       0.16128041       0.00000000
Si       0.08337941       2.07821740       8.36497016
14
Lattice="5.078678351879471 0.34871191992013767 1.0593169500306137e-15 0.19210346602300843 4.112109306508808 2.2166374088040554e-14 8.160379230994034e-16 2.667545720530565e-14 17.474913164222873" Properties=species:S:1:pos:R:3 unique_starting_index=0 config_type=initial n_minim_iter=14 stress="0.0007938616101256373 0.0038764824957880197 -1.9410300673440718e-16 0.0038764824957880197 -0.016746179938543316 4.890419150805253e-15 -1.9410300673440718e-16 4.890419150805253e-15 0.01800319380148331" pbc="T T T"
Si       1.52881595       1.08932500      13.80998615
Si       1.10657496       1.14108562       5.07252957
Si       3.74196586       3.37149623       3.66492701
Si       4.16420686       3.31973561      12.40238359
Si       4.47492241       1.41274411       6.27368113
Si       3.23914685       1.16637842      15.01113771
Si       0.79585941       3.04807712      11.20123204
Si       2.03163497       3.29444280       2.46377546
Si       2.18901628       1.16267930       6.37853105
Si       0.44637463       1.06773132      15.11598763
Si       3.08176554       3.29814193      11.09638212
Si       4.82440719       3.39308991       2.35892553
Si       2.53933918       0.17435596       0.00000000
Si       0.09605173       2.05605465       8.73745658
14
Lattice="4.960750865133752 0.48579997390688884 6.345383740026598e-16 0.3154927353806695 4.158757713269348 2.1995676304514443e-14 -1.7602255671937047e-16 2.3187058320532834e-14 18.0582192807028" Properties=species:S:1:pos:R:3 unique_starting_index=0 config_type=initial n_minim_iter=15 stress="-0.039739921756358994 0.014288092788959409 -1.6200733235439412e-15 0.014288092788959409 -0.029793753723290108 3.4100802091942334e-15 -1.6200733235439412e-15 3.4100802091942334e-15 -0.019521804520309986" pbc="T T T"
Si       1.69113847       1.14773687      14.30199464
Si       0.94698333       1.17454197       5.27288500
Si       3.58510513       3.49682081       3.75622464
Si       4.32926027       3.47001572      12.78533428
Si       4.47169915       1.57710981       6.50149245
Si       3.12717351       1.23096901      15.53060209
Si       0.80454445       3.06744788      11.55672683
Si       2.14907009       3.41358868       2.52761719
Si       2.20865466       1.18367040       6.44829497
Si       0.42946714       1.13860844      15.47740461
Si       3.06758894       3.46088728      11.60992431
Si       4.84677646       3.50594925       2.58081467
Si       2.48037543       0.24289999      -0.00000000
Si       0.15774637       2.07937886       9.02910964
14
Lattice="4.9070411229077475 0.4925433432468349 3.2121262016082147e-15 0.3216376924468295 4.170649853218297 1.2701220471032993e-14 1.0430913229687673e-14 -1.803296384476479e-14 18.533425318556812" Properties=species:S:1:pos:R:3 unique_starting_index=0 config_type=initial n_minim_iter=16 stress="-0.0522863020081939 0.017566335771086596 -5.132810612660671e-17 0.017566335771086596 -0.02183498105040151 1.3652096273214705e-15 -5.132810612660671e-17 1.3652096273214705e-15 -0.0276448973257162" pbc="T T T"
Si       1.79429692       1.15721750      14.71955801
Si       0.82004249       1.17437910       5.45284535
Si       3.43438190       3.50597570       3.81386731
Si       4.40863633       3.48881410      13.08057997
Si       4.47585750       1.60791838       6.68399907
Si       3.04552303       1.21622157      15.95071173
Si       0.75282131       3.05527482      11.84942625
Si       2.18315579       3.44697163       2.58271359
Si       2.21845358       1.16241617       6.52647501
Si       0.39588583       1.16918043      15.79318767
Si       3.01022523       3.50077703      12.00695031
Si       4.83279299       3.49401277       2.74023765
Si       2.45352056       0.24627167       0.00000000
Si       0.16081885       2.08532493       9.26671266
14
Lattice="4.9153396520909025 0.32530374099970194 2.3546395892593492e-14 0.1708657513203439 4.161377451873121 1.3100794997170218e-14 8.830059270825234e-14 -1.7285771283822544e-14 18.897284561583334" Properties=species:S:1:pos:R:3 unique_starting_index=0 config_type=initial n_minim_iter=17 stress="-0.030190136523017344 0.007563341390155799 2.9020951755134597e-15 0.007563341390155799 0.00349476603449619 -3.1219879623446535e-16 2.9020951755134597e-15 -3.1219879623446535e-16 0.00604067078492378" pbc="T T T"
Si       1.86363790       1.09362226      15.08407553
Si       0.67946480       1.14971833       5.63543325
Si       3.22256750       3.39305893       3.81320903
Si       4.40674060       3.33696286      13.26185131
Si       4.49322646       1.47039749       6.80516083
Si       2.96521589       1.09824685      16.25380311
Si       0.59297894       3.01628371      12.09212373
Si       2.12098951       3.38843434       2.64348145
Si       2.21530952       1.07235581       6.58265951
Si       0.32779318       1.17098479      16.03130179
Si       2.87089588       3.41432539      12.31462506
Si       4.75841222       3.31569640       2.86598277
Si       2.45766983       0.16265187       0.00000000
Si       0.08543288       2.08068873       9.44864228
14
Lattice="4.999839450105186 0.11486299390362271 2.2563894103297382e-14 -0.020072506001069156 4.184219847417223 1.3930144678328659e-14 8.814597527502992e-14 -1.735266038056166e-14 18.661767252434572" Properties=species:S:1:pos:R:3 unique_starting_index=0 config_type=initial n_minim_iter=18 stress="0.02675910841146005 -0.0034536400811396753 5.053445311111403e-15 -0.0034536400811396753 0.022193734737165464 2.3270443902734965e-15 5.053445311111403e-15 2.3270443902734965e-15 0.022379197853353832" pbc="T T T"
Si       1.85833523       1.01507470      14.97999174
Si       0.63154824       1.13446672       5.64910811
Si       3.12143171       3.28400814       3.68177551
Si       4.34821871       3.16461612      13.01265914
Si       4.53339948       1.28373286       6.67174814
Si       2.95632344       0.98067155      16.00263176
Si       0.44636746       3.01534998      11.99001912
Si       2.02344351       3.31841129       2.65913549
Si       2.20665546       0.99628877       6.50232492
Si       0.28322801       1.15325265      15.83320855
Si       2.77311148       3.30279407      12.15944233
Si       4.69653893       3.14583019       2.82855870
Si       2.49991973       0.05743150       0.00000000
Si      -0.01003625       2.09210992       9.33088363
14
Lattice="5.0088925806976095 0.0033410180489725633 2.1154340109006193e-14 -0.12147232830603541 4.215537658554286 1.467768116521047e-14 8.333733116228459e-14 -1.6464900952737177e-14 18.64804775436218" Properties=species:S:1:pos:R:3 unique_starting_index=0 config_type=initial n_minim_iter=19 stress="0.02146571028813334 -0.009087538932007597 4.803601170441012e-15 -0.009087538932007597 0.019961105605603165 3.695815234028337e-15 4.803601170441012e-15 3.695815234028337e-15 0.01656233029774818" pbc="T T T"
Si       1.82593715       0.97663354      15.05242834
Si       0.61777297       1.13280580       5.72840447
Si       3.06148310       3.24224514       3.59561941
Si       4.26964728       3.08607288      12.91964329
Si       4.51347484       1.18407005       6.59334170
Si       2.93912787       0.92871030      15.91736558
Si       0.37394541       3.03480862      12.05470606
Si       1.94829238       3.29016837       2.73068218
Si       2.17348992       0.96761240       6.50556169
Si       0.27022021       1.14182693      15.82958557
Si       2.71393034       3.25126627      12.14248606
Si       4.61720004       3.07705174       2.81846219
Si       2.50444629       0.00167051       0.00000000
Si      -0.06073616       2.10776883       9.32402388
14
Lattice="5.002740566799015 0.020433234519296906 2.055575868475868e-14 -0.10619629824920104 4.223881692487571 1.4782705582434702e-14 8.101720353363204e-14 -1.5646118757576054e-14 18.61932838038259" Properties=species:S:1:pos:R:3 unique_starting_index=0 config_type=initial n_minim_iter=20 stress="0.003476455761693642 -0.006431458398117318 3.906947614412164e-15 -0.006431458398117318 0.0019487147892830053 2.850855686865062e-15 3.906947614412164e-15 2.850855686865062e-15 0.002531785301364685" pbc="T T T"
Si       1.79872669       0.98560399      15.04451261
Si       0.64954545       1.13655347       5.73484842
Si       3.09781758       3.25871094       3.57481577
Si       4.24699882       3.10776145      12.88447996
Si       4.50054528       1.19269569       6.54385232
Si       2.95046742       0.94989501      15.85351651
Si       0.39599899       3.05161924      12.07547606
Si       1.94607685       3.29441992       2.76581187
Si       2.16164822       0.98813357       6.51372765
Si       0.28662391       1.13402389      15.82339184
Si       2.73489605       3.25618136      12.10560073
Si       4.60992036       3.11029103       2.79593654
Si       2.50137028       0.01021662       0.00000000
Si      -0.05309815       2.11194085       9.30966419
14
Lattice="4.985009044445225 0.057680632864135314 1.999262309769787e-14 -0.07284053134812779 4.240272921418939 1.4778870277343406e-14 7.787742452850537e-14 -1.5485396500540636e-14 18.741237495063157" Properties=species:S:1:pos:R:3 unique_starting_index=0 config_type=initial n_minim_iter=21 stress="-0.001429254915018538 -0.0031131336231774646 4.328227065023928e-15 -0.0031131336231774646 -0.0027939990037294145 2.5980009935198976e-15 4.328227065023928e-15 2.5980009935198976e-15 -0.005916902842926186" pbc="T T T"
Si       1.80927017       0.99828729      15.16810701
Si       0.64681409       1.15068948       5.79748826
Si       3.10289835       3.29966626       3.57313049
Si       4.26535442       3.14726407      12.94374923
Si       4.50610128       1.22147723       6.54723118
Si       2.93499202       0.98518018      15.91784993
Si       0.40606723       3.07647632      12.19400631
Si       1.97717650       3.31277338       2.82338757
Si       2.15623955       1.01349398       6.53888169
Si       0.29984470       1.13548279      15.90950044
Si       2.75592896       3.28445957      12.20235581
Si       4.61232381       3.16247076       2.83173706
Si       2.49250452       0.02884032       0.00000000
Si      -0.03642027       2.12013646       9.37061875
