14
Lattice="4.11429 -1.25593148309177e-18 7.908627439116531e-35 -0.12335538002055892 4.407123979730998 -2.7751754058602965e-16 -2.094464034596031e-31 9.994330125541034e-16 15.871520000000006" Properties=species:S:1:pos:R:3 unique_starting_index=0 config_type=initial n_minim_iter=1 pbc="T T T"
Si       0.99445531       1.13091737      12.47896990
Si       1.00101200       1.07264462       4.54320990
Si       2.99647931       3.27620661       3.39255010
Si       2.98992262       3.33447936      11.32831010
Si       3.28904654       1.14831185       5.58327696
Si       2.82071077       1.05525014      13.51903696
Si       0.70188808       3.25881213      10.28824304
Si       1.17022385       3.35187384       2.35248304
Si       1.73569007       1.10395371       5.96421883
Si       0.25977724       1.09960828      13.89997883
Si       2.25524455       3.30317027       9.90730117
Si       3.73115738       3.30751570       1.97154117
Si       2.05714500       0.00000000      -0.00000000
Si      -0.06167769       2.20356199       7.93576000
14
Lattice="4.17917710247184 0.0025913222538111328 -1.6317611713451863e-19 -0.12252507752361913 4.487434597697108 -2.825747173941666e-16 2.9620770880630612e-31 1.013070823377884e-15 16.08809558288219" Properties=species:S:1:pos:R:3 unique_starting_index=0 config_type=initial n_minim_iter=2 pbc="T T T"
Si       1.01069974       1.15213466      12.64900798
Si       1.01762627       1.09287830       4.60496019
Si       3.04595229       3.33789126       3.43908761
Si       3.03902575       3.39714762      11.48313540
Si       3.34151792       1.17128555       5.66007083
Si       2.86598520       1.07631874      13.70411862
Si       0.71513411       3.31874037      10.42802475
Si       1.19066683       3.41370718       2.38397696
Si       1.76368549       1.12516104       6.04629278
Si       0.26464052       1.11985192      14.09034057
Si       2.29296653       3.36486488      10.04180280
Si       3.79201151       3.37017400       1.99775501
Si       2.08958855       0.00129566      -0.00000000
Si      -0.06126254       2.24371730       8.04404779
14
Lattice="4.418048932483309 0.013230646914713843 -8.331366689548674e-19 -0.11829039852093923 4.769011826852356 -3.003056958009358e-16 -9.477235594864946e-30 1.0692821766448668e-15 16.980761330763425" Properties=species:S:1:pos:R:3 unique_starting_index=0 config_type=initial n_minim_iter=3 pbc="T T T"
Si       1.07048093       1.22678915      13.35034961
Si       1.07939833       1.16433209       4.85996894
Si       3.22927760       3.55545333       3.63041172
Si       3.22036020       3.61791038      12.12079239
Si       3.53444830       1.25303902       5.97631138
Si       3.03347990       1.15131286      14.46669205
Si       0.76531023       3.52920345      11.00444995
Si       1.26627864       3.63092961       2.51406928
Si       1.86726953       1.20025525       6.38356067
Si       0.28260974       1.19086598      14.87394134
Si       2.43248901       3.58198722      10.59720066
Si       4.01714879       3.59137649       2.10681999
Si       2.20902447       0.00661532      -0.00000000
Si      -0.05914520       2.38450591       8.49038067
14
Lattice="4.36806872582855 0.020984948097511384 -1.3214266744538732e-18 -0.10848567059117081 4.627501186685319 -2.91394740485006e-16 7.829925644246627e-28 1.0494873150883482e-15 16.66640855521427" Properties=species:S:1:pos:R:3 unique_starting_index=0 config_type=initial n_minim_iter=4 pbc="T T T"
Si       1.05999308       1.19264547      13.10401573
Si       1.06979845       1.13159760       4.77081145
Si       3.19958998       3.45584067       3.56239283
Si       3.18978460       3.51688853      11.89559710
Si       3.49676829       1.22294404       5.86507121
Si       3.00109196       1.12228398      14.19827549
Si       0.76281476       3.42554209      10.80133734
Si       1.25849110       3.52620216       2.46813306
Si       1.84730715       1.16787287       6.26467599
Si       0.28248438       1.15637019      14.59788027
Si       2.41227590       3.48061326      10.40173256
Si       3.97709868       3.49211594       2.06852829
Si       2.18403436       0.01049247      -0.00000000
Si      -0.05424284       2.31375059       8.33320428
14
Lattice="4.384795058995009 0.02856137887736561 -1.7985161557576714e-18 -0.10087148039393888 4.550408096580564 -2.8654017249428084e-16 -4.8575336440545367e-26 1.0495438800829239e-15 16.66730685990632" Properties=species:S:1:pos:R:3 unique_starting_index=0 config_type=initial n_minim_iter=5 pbc="T T T"
Si       1.06539185       1.17478867      13.10537665
Si       1.07656994       1.11469606       4.77172322
Si       3.21853173       3.40418080       3.56193021
Si       3.20735364       3.46427341      11.89558364
Si       3.51197066       1.20929832       5.86518989
Si       3.01478618       1.10874779      14.19884332
Si       0.77195292       3.36967115      10.80211697
Si       1.26913739       3.47022168       2.46846354
Si       1.85566868       1.15167457       6.26454393
Si       0.28629311       1.13781017      14.59819736
Si       2.42825490       3.42729491      10.40276293
Si       3.99763047       3.44115931       2.06910950
Si       2.19239753       0.01428069      -0.00000000
Si      -0.05043574       2.27520405       8.33365343
14
Lattice="4.4166874780484395 0.03429097071698841 -2.1593088726331852e-18 -0.09569028992891038 4.528379373537226 -2.8515299209762386e-16 3.419600449979217e-24 1.0555148817774464e-15 16.76212794652603" Properties=species:S:1:pos:R:3 unique_starting_index=0 config_type=initial n_minim_iter=6 pbc="T T T"
Si       1.07421085       1.17053525      13.18025085
Si       1.08628774       1.11079993       4.79918688
Si       3.24678634       3.39213510       3.58187710
Si       3.23470944       3.45187042      11.96294107
Si       3.53877915       1.20827808       5.89861140
Si       3.03840692       1.10734806      14.27967537
Si       0.78221803       3.35439226      10.86351655
Si       1.28259027       3.45532228       2.48245258
Si       1.87033273       1.14859322       6.30000320
Si       0.29016587       1.13274195      14.68106717
Si       2.45066446       3.41407713      10.46212475
Si       4.03083132       3.42992839       2.08106078
Si       2.20834374       0.01714549      -0.00000000
Si      -0.04784514       2.26418969       8.38106397
14
Lattice="4.445502811372997 0.041113410817883896 -2.5889948777707024e-18 -0.08924621015420722 4.4901344033001935 -2.827468341724585e-16 -2.8385206756093535e-22 1.0601545978443043e-15 16.835931857934003" Properties=species:S:1:pos:R:3 unique_starting_index=0 config_type=initial n_minim_iter=7 pbc="T T T"
Si       1.08252529       1.16239266      13.23867855
Si       1.09560301       1.10323124       4.82071262
Si       3.27373132       3.36885515       3.59725331
Si       3.26065359       3.42801657      12.01521924
Si       3.56341932       1.20392897       5.92456204
Si       3.06021179       1.10280835      14.34252797
Si       0.79283728       3.32731884      10.91136982
Si       1.29604481       3.42843947       2.49340389
Si       1.88392853       1.14192244       6.32748254
Si       0.29419977       1.12370147      14.74544847
Si       2.47232807       3.38932538      10.50844932
Si       4.06205683       3.40754634       2.09048339
Si       2.22275141       0.02055671      -0.00000000
Si      -0.04462311       2.24506720       8.41796593
14
Lattice="4.716555798908234 0.09881591329064528 -6.21032180677451e-18 -0.03556349987975434 4.192351311115651 -2.636792420385231e-16 4.285946316232901e-20 1.1045876634081944e-15 17.52295854757066" Properties=species:S:1:pos:R:3 unique_starting_index=0 config_type=initial n_minim_iter=8 pbc="T T T"
Si       1.15941828       1.09995815      13.78216072
Si       1.18107787       1.04562546       5.02068145
Si       3.52157401       3.19120907       3.74079782
Si       3.49991443       3.24554176      12.50227710
Si       3.79345270       1.17347471       6.16619974
Si       3.26359925       1.07092482      14.92767901
Si       0.88753960       3.11769252      11.35675881
Si       1.41739305       3.22024241       2.59527953
Si       2.01075796       1.09211612       6.58354906
Si       0.32973818       1.05346749      15.34502833
Si       2.67023433       3.19905111      10.93940949
Si       4.35125411       3.23769973       2.17793022
Si       2.35827790       0.04940796      -0.00000000
Si      -0.01778175       2.09617566       8.76147927
14
Lattice="4.530524371854401 0.10150913382958186 -1.1373243669354397e-17 -0.027100962187991157 4.133341769863757 -4.544285153895248e-16 -1.931947216083454e-17 3.86268003117418e-16 17.24762458868698" Properties=species:S:1:pos:R:3 unique_starting_index=0 config_type=initial n_minim_iter=9 pbc="T T T"
Si       1.11779839       1.08535777      13.56870654
Si       1.13391332       1.03206768       4.94489425
Si       3.38562502       3.14949314       3.67891805
Si       3.36951009       3.20278322      12.30273034
Si       3.65154628       1.16064967       6.06722586
Si       3.13068980       1.05828491      14.69103815
Si       0.85187713       3.07420123      11.18039873
Si       1.37273361       3.17656599       2.55658644
Si       1.93035417       1.07863838       6.47962755
Si       0.32135754       1.03878707      15.10343984
Si       2.57306924       3.15621252      10.76799704
Si       4.18206587       3.19606383       2.14418475
Si       2.26526219       0.05075457      -0.00000000
Si      -0.01355048       2.06667088       8.62381229
14
Lattice="4.629172232520789 0.1038646196152299 -3.0721827588884504e-16 -0.027535502886598243 4.214736400222462 6.502058634715993e-15 -1.1591971903819535e-15 2.540580587917938e-14 17.621763067132303" Properties=species:S:1:pos:R:3 unique_starting_index=0 config_type=initial n_minim_iter=10 pbc="T T T"
Si       1.14205104       1.10669058      13.86276598
Si       1.15876732       1.05260993       5.05188445
Si       3.45958569       3.21191044       3.75899709
Si       3.44286941       3.26599109      12.56987862
Si       3.73075742       1.18365753       6.19976261
Si       3.19923318       1.07950760      15.01064414
Si       0.87087931       3.13494349      11.42200046
Si       1.40240355       3.23909342       2.61111893
Si       1.97280567       1.10005725       6.62078252
Si       0.32801270       1.05924326      15.43166405
Si       2.62883106       3.21854377      11.00098055
Si       4.27362403       3.25935776       2.19009902
Si       2.31458612       0.05193231      -0.00000000
Si      -0.01376775       2.10736820       8.81088153
14
Lattice="4.627634446879932 0.1038958087852402 2.016936038761208e-16 -0.027455987667402995 4.206511145278508 5.936586572862075e-15 8.047708326042347e-16 2.3386769840312938e-14 17.611047099123635" Properties=species:S:1:pos:R:3 unique_starting_index=0 config_type=initial n_minim_iter=11 pbc="T T T"
Si       1.14160082       1.10454678      13.85451897
Si       1.15848841       1.05065670       5.04899543
Si       3.45857764       3.20586018       3.75652812
Si       3.44169005       3.25975025      12.56205167
Si       3.72971543       1.18155342       6.19590019
Si       3.19800825       1.07754587      15.00142374
Si       0.87046303       3.12885353      11.41514691
Si       1.40217021       3.23286109       2.60962336
Si       1.97199580       1.09805734       6.61671968
Si       0.32809343       1.05714614      15.42224323
Si       2.62818266       3.21234962      10.99432742
Si       4.27208503       3.25326081       2.18880387
Si       2.31381722       0.05194790      -0.00000000
Si      -0.01372799       2.10325557       8.80552355
14
Lattice="4.630227684444958 0.10390966525494542 -3.145633356667077e-16 -0.027518895878883357 4.202917047554824 6.970816440473047e-15 -1.1870032251611126e-15 2.7026984095628773e-14 17.61703539068535" Properties=species:S:1:pos:R:3 unique_starting_index=0 config_type=initial n_minim_iter=12 pbc="T T T"
Si       1.14213055       1.10357846      13.85939436
Si       1.15922385       1.04983490       5.05087666
Si       3.46057824       3.20324825       3.75764103
Si       3.44348494       3.25699182      12.56615873
Si       3.73196397       1.18063849       6.19795640
Si       3.19961811       1.07668454      15.00647410
Si       0.87074482       3.12618823      11.41907899
Si       1.40309068       3.23014218       2.61056129
Si       1.97293098       1.09721445       6.61894984
Si       0.32842342       1.05619891      15.42746753
Si       2.62977781       3.20961226      10.99808555
Si       4.27428537       3.25062781       2.18956786
Si       2.31511384       0.05195483      -0.00000000
Si      -0.01375945       2.10145852       8.80851770
14
Lattice="4.639284569322048 0.10390559729283311 2.0083127015835337e-16 -0.027794798522883454 4.1898396012426105 6.4202972524947745e-15 8.002482466084198e-16 2.4969561093408285e-14 17.644129358292208" Properties=species:S:1:pos:R:3 unique_starting_index=0 config_type=initial n_minim_iter=13 pbc="T T T"
Si       1.14393332       1.10000267      13.88147410
Si       1.16181157       1.04686993       5.05940942
Si       3.46755645       3.19374253       3.76265525
Si       3.44967820       3.24687527      12.58471993
Si       3.74006549       1.17727945       6.20724493
Si       3.20496397       1.07349875      15.02930961
Si       0.87142428       3.11646575      11.43688442
Si       1.40652580       3.22024645       2.61481975
Si       1.97600876       1.09416297       6.62905327
Si       0.32973613       1.05270963      15.45111795
Si       2.63548102       3.19958223      11.01507609
Si       4.28175364       3.24103557       2.19301141
Si       2.31964228       0.05195280      -0.00000000
Si      -0.01389740       2.09491980       8.82206468
14
Lattice="4.638616653304425 0.10363514784874825 -3.379047568371623e-16 -0.028064471588264875 4.1862171423582994 7.55657846591255e-15 -1.2799630888931369e-15 2.8947844934098657e-14 17.667993370838264" Properties=species:S:1:pos:R:3 unique_starting_index=0 config_type=initial n_minim_iter=14 pbc="T T T"
Si       1.14354298       1.09878888      13.90114655
Si       1.16173311       1.04613727       5.06714986
Si       3.46700920       3.19106342       3.76684682
Si       3.44881907       3.24371502      12.60084351
Si       3.74067800       1.17619222       6.21531806
Si       3.20321474       1.07236907      15.04931474
Si       0.86987418       3.11366007      11.45267531
Si       1.40733744       3.21748322       2.61867863
Si       1.97484737       1.09336039       6.63798291
Si       0.33042872       1.05156575      15.47197960
Si       2.63570481       3.19649190      11.03001046
Si       4.28012346       3.23828654       2.19601378
Si       2.31930833       0.05181757      -0.00000000
Si      -0.01403224       2.09310857       8.83399669
