8
Lattice="5.560172544351427 0.0 0.0 0.0 6.06860578615436 -4.95213364377401e-16 0.0 4.620920049256468e-16 5.662719176315148" Properties=species:S:1:pos:R:3 unique_starting_index=2 config_type=initial n_minim_iter=1 energy=-1311.8966575181578 free_energy=-1311.8966575181578 pbc="T T T"
Si       3.25059652       2.19128045       3.52124987
Si       2.30957603       2.19128045       2.14146930
Si       3.46581026       3.87618189       2.35569824
Si       2.09436228       3.87618189       3.30702094
Si       5.08966230       3.87732534       0.68989028
Si       0.47051025       3.87732534       4.97282889
Si       4.87444856       2.19242390       5.18705783
Si       0.68572399       2.19242390       0.47566135
8
Lattice="5.580724231208216 0.0 0.0 0.0 6.075031973193732 -4.979533272536543e-16 0.0 4.619048958347181e-16 5.686356696577891" Properties=species:S:1:pos:R:3 unique_starting_index=2 config_type=initial n_minim_iter=2 stress="0.011382579881331132 -2.1048656543359429e-16 -8.096966101221165e-16 -2.1048656543359429e-16 0.006806553144135238 7.342554608148637e-17 -8.096966101221165e-16 7.342554608148637e-17 0.006549604917897229" pbc="T T T"
Si       3.26301835       2.19410258       3.53552945
Si       2.31770588       2.19410258       2.15082725
Si       3.47836592       3.87977804       2.36518384
Si       2.10235831       3.87977804       3.32117286
Si       5.10806799       3.88092939       0.69235110
Si       0.47265624       3.88092939       4.99400559
Si       4.89272042       2.19525393       5.20836219
Si       0.68800381       2.19525393       0.47799451
8
Lattice="5.371830291809655 0.0 0.0 0.0 5.646007105604454 -5.131944209447969e-16 0.0 4.487837250933954e-16 6.085163269616191" Properties=species:S:1:pos:R:3 unique_starting_index=2 config_type=initial n_minim_iter=3 stress="0.010843263167150586 -2.4663695339902526e-17 -5.919286881576606e-15 -2.4663695339902526e-17 -0.11850172028307525 -4.150719459642132e-17 -5.919286881576606e-15 -4.150719459642132e-17 -0.02434730171699952" pbc="T T T"
Si       3.25653119       2.14581620       3.68980345
Si       2.11529910       2.14581620       2.39535982
Si       3.30326743       3.49773322       2.41889721
Si       2.06856287       3.49773322       3.66626606
Si       4.80121425       3.50019091       0.64722181
Si       0.57061604       3.50019091       5.43794146
Si       4.75447801       2.14827388       5.46147885
Si       0.61735228       2.14827388       0.62368442
8
Lattice="5.237784773317258 0.0 0.0 0.0 5.639229625217252 -5.864522049721208e-16 0.0 3.953399550900374e-16 6.253824021683246" Properties=species:S:1:pos:R:3 unique_starting_index=2 config_type=initial n_minim_iter=4 stress="0.013321512388938426 2.0855788807972433e-16 -2.1997748425700032e-16 2.0855788807972433e-16 -0.08350370768422476 4.6880447464606624e-17 -2.1997748425700032e-16 4.6880447464606624e-17 -0.024196600707864384" pbc="T T T"
Si       3.22251464       2.18893771       3.74978293
Si       2.01527013       2.18893771       2.50404109
Si       3.20340168       3.44731361       2.44090451
Si       2.03438309       3.44731361       3.81291951
Si       4.63416252       3.45029191       0.62287092
Si       0.60362225       3.45029191       5.63095310
Si       4.65327548       2.19191601       5.56781652
Si       0.58450929       2.19191601       0.68600750
8
Lattice="4.674110644498977 0.0 0.0 0.0 5.708614827359727 -9.058710831667457e-16 0.0 1.7288234110058938e-16 6.912964990376123" Properties=species:S:1:pos:R:3 unique_starting_index=2 config_type=initial n_minim_iter=5 stress="-0.18197833494046559 -1.9501191750679501e-16 -2.7446121723178557e-16 -1.9501191750679501e-16 -0.17994954028117824 1.9741947204391596e-16 -2.7446121723178557e-16 1.9741947204391596e-16 -0.24414576162424736" pbc="T T T"
Si       2.96032294       2.33460650       4.00087558
Si       1.71378770       2.33460650       2.91208941
Si       2.81625877       3.38099888       2.69770286
Si       1.85785187       3.38099888       4.21526213
Si       4.05084303       3.37400832       0.54439309
Si       0.62326762       3.37400832       6.36857190
Si       4.19490720       2.32761595       6.15418536
Si       0.47920345       2.32761595       0.75877963
8
Lattice="4.541589273776148 0.0 0.0 0.0 5.749338818430675 -1.0011825216480606e-15 0.0 1.1016775012355698e-16 7.108119641861754" Properties=species:S:1:pos:R:3 unique_starting_index=2 config_type=initial n_minim_iter=6 stress="-0.3465180216681206 -2.799468564559471e-16 -8.6616035929105e-16 -2.799468564559471e-16 -0.18973601791521005 2.799468564559471e-16 -8.6616035929105e-16 2.799468564559471e-16 -0.33209023893395806" pbc="T T T"
Si       2.89577763       2.37747373       4.09315164
Si       1.64581165       2.37747373       3.01496800
Si       2.72919343       3.38137451       2.77394853
Si       1.81239584       3.38137451       4.33417111
Si       3.91660628       3.37186509       0.53909182
Si       0.62498299       3.37186509       6.56902782
Si       4.08319048       2.36796431       6.32800835
Si       0.45839880       2.36796431       0.78011129
8
Lattice="4.4696697108232675 0.0 0.0 0.0 6.463962349809568 -1.1106774749874902e-15 0.0 4.275209182972457e-17 7.308795093991688" Properties=species:S:1:pos:R:3 unique_starting_index=2 config_type=initial n_minim_iter=7 stress="-0.305521810721834 2.3133581246082173e-17 -2.5236634086635097e-16 2.3133581246082173e-17 0.01438594198233388 4.47950255037773e-16 -2.5236634086635097e-16 4.47950255037773e-16 -0.19874892519227474" pbc="T T T"
Si       2.90272254       2.77899292       4.22605704
Si       1.56694717       2.77899292       3.08273805
Si       2.67550387       3.70135351       2.92028027
Si       1.79416584       3.70135351       4.38851482
Si       3.80178203       3.68496943       0.57165949
Si       0.66788768       3.68496943       6.73713560
Si       4.02900069       2.76260884       6.57467782
Si       0.44066902       2.76260884       0.73411728
8
Lattice="4.558799399190654 0.0 0.0 0.0 6.475905359456059 -1.116853722538288e-15 0.0 3.076209455699969e-17 7.264897399988964" Properties=species:S:1:pos:R:3 unique_starting_index=2 config_type=initial n_minim_iter=8 stress="-0.026057263419398225 8.903447780113862e-17 -3.1679709543195836e-16 8.903447780113862e-17 0.020101607610919246 3.3129108019028327e-16 -3.1679709543195836e-16 3.3129108019028327e-16 -0.019848685625516158" pbc="T T T"
Si       2.95408404       2.78295450       4.25094745
Si       1.60471536       2.78295450       3.01394995
Si       2.74121775       3.70675600       2.93590113
Si       1.81758165       3.70675600       4.32899627
Si       3.88411506       3.69295086       0.61849875
Si       0.67468434       3.69295086       6.64639865
Si       4.09698135       2.76914936       6.56834983
Si       0.46181805       2.76914936       0.69654757
8
Lattice="4.515081117629684 0.0 0.0 0.0 6.401061340463637 -1.1531991253722542e-15 0.0 1.6672409509710704e-17 7.403526867799136" Properties=species:S:1:pos:R:3 unique_starting_index=2 config_type=initial n_minim_iter=9 stress="0.04736556911667028 -2.532059161751142e-16 -1.0377291646521074e-15 -2.532059161751142e-16 0.019258760255589927 -1.3075387474616554e-16 -1.0377291646521074e-15 -1.3075387474616554e-16 0.0615114303454657" pbc="T T T"
Si       2.90309822       2.77988694       4.42321512
Si       1.61198289       2.77988694       2.98031175
Si       2.71804489       3.60570646       3.01534618
Si       1.79703623       3.60570646       4.38818069
Si       3.86952345       3.62117440       0.72145168
Si       0.64555766       3.62117440       6.68207518
Si       4.05457679       2.79535488       6.71710961
Si       0.46050433       2.79535488       0.68641725
8
Lattice="4.476572133520626 0.0 0.0 0.0 5.851140110394963 -1.1907307170173684e-15 0.0 9.699422710198429e-20 7.530985087025529" Properties=species:S:1:pos:R:3 unique_starting_index=2 config_type=initial n_minim_iter=10 stress="0.832979433685832 6.753884098508118e-17 -1.0806214557612988e-15 6.753884098508118e-17 0.008016987652067153 4.397763489559817e-16 -1.0806214557612988e-15 4.397763489559817e-16 0.44354937994054555" pbc="T T T"
Si       2.75864790       2.81608447       4.86560654
Si       1.71792423       2.81608447       2.66537854
Si       2.62967706       2.84066333       3.02786798
Si       1.84689507       2.84066333       4.50311711
Si       3.95621030       3.03505564       1.10011400
Si       0.52036184       3.03505564       6.43087109
Si       4.08518114       3.01047678       6.79336052
Si       0.39139100       3.01047678       0.73762456
8
Lattice="4.464449462458152 0.0 0.0 0.0 5.817797747473254 -1.1927948768017766e-15 0.0 4.1293894991556345e-20 7.543664339337511" Properties=species:S:1:pos:R:3 unique_starting_index=2 config_type=initial n_minim_iter=11 stress="0.8426022094308689 7.217479194280318e-17 -2.3345251643128487e-15 7.217479194280318e-17 0.007751612239605008 3.136309899143597e-16 -2.3345251643128487e-15 3.136309899143597e-16 0.47919638279376964" pbc="T T T"
Si       2.73731117       2.82140726       4.91159189
Si       1.72713829       2.82140726       2.63207245
Si       2.61669313       2.78833322       3.03301257
Si       1.84775633       2.78833322       4.51065177
Si       3.95936302       2.99639048       1.13975972
Si       0.50508644       2.99639048       6.40390462
Si       4.07998106       3.02946453       6.80484474
Si       0.38446840       3.02946453       0.73881960
8
Lattice="4.28326429301025 0.0 0.0 0.0 6.004068336972659 -1.1734185181182476e-15 0.0 7.440183426105674e-21 7.42089146982035" Properties=species:S:1:pos:R:3 unique_starting_index=2 config_type=initial n_minim_iter=12 stress="0.007397641290498467 1.6085285954531358e-16 -3.2298556101106003e-15 1.6085285954531358e-16 0.007394286527708377 4.100788945943808e-16 -3.2298556101106003e-15 4.100788945943808e-16 -0.15018976571200696" pbc="T T T"
Si       2.53822053       2.89769356       4.87607828
Si       1.74504376       2.89769356       2.54481319
Si       2.47274051       2.88712175       3.00969129
Si       1.81052378       2.88712175       4.41120018
Si       3.88667591       3.10637478       1.16563255
Si       0.39658838       3.10637478       6.25525892
Si       3.95215593       3.11694659       6.72013703
Si       0.33110837       3.11694659       0.70075444
8
Lattice="4.1585669663924225 0.0 0.0 0.0 5.929505530745568 -1.2107726486787596e-15 0.0 3.3887573206970574e-21 7.65709747290211" Properties=species:S:1:pos:R:3 unique_starting_index=2 config_type=initial n_minim_iter=13 stress="-0.19439439073621953 3.6250746746847915e-16 -1.298323581784918e-15 3.6250746746847915e-16 0.00716434045764239 1.3362501538071677e-16 -1.298323581784918e-15 1.3362501538071677e-16 -0.07506184515422937" pbc="T T T"
Si       2.46239894       2.89054970       5.00722168
Si       1.69616802       2.89054970       2.64987579
Si       2.37754958       2.82948550       3.08945611
Si       1.78101739       2.82948550       4.56764136
Si       3.77545151       3.03895583       1.17867294
Si       0.38311546       3.03895583       6.47842453
Si       3.86030087       3.10002003       6.91800485
Si       0.29826609       3.10002003       0.73909263
8
Lattice="4.126465283659373 0.0 0.0 0.0 5.930425977889649 -1.2169816905960761e-15 0.0 7.191929169042159e-22 7.696346170174073" Properties=species:S:1:pos:R:3 unique_starting_index=2 config_type=initial n_minim_iter=14 stress="-0.22967613630025693 3.0564008509563603e-16 -1.5750632736268843e-15 3.0564008509563603e-16 0.005047630908342496 3.109453131879422e-16 -1.5750632736268843e-15 3.109453131879422e-16 -0.11760764143985301" pbc="T T T"
Si       2.46202784       2.94641170       4.96420179
Si       1.66443745       2.94641170       2.73214438
Si       2.30400137       2.84669231       3.08300997
Si       1.82246391       2.84669231       4.61333620
Si       3.72767009       2.98401427       1.11602870
Si       0.39879520       2.98401427       6.58031747
Si       3.88569656       3.08373367       6.93118305
Si       0.24076873       3.08373367       0.76516312
8
Lattice="3.9869205639073053 0.0 0.0 0.0 5.632975083125313 -1.2296096374853612e-15 0.0 2.356647120704726e-25 7.776202013738288" Properties=species:S:1:pos:R:3 unique_starting_index=2 config_type=initial n_minim_iter=15 stress="0.6397892866415597 5.079419264723146e-16 -3.5339789352435502e-15 5.079419264723146e-16 0.015313522361489557 -3.57275798094419e-16 -3.5339789352435502e-15 -3.57275798094419e-16 0.9008730147184412" pbc="T T T"
Si       2.26150505       2.88556740       4.88789956
Si       1.72541551       2.88556740       2.88830246
Si       2.00419236       2.89987850       2.92242810
Si       1.98272820       2.89987850       4.85377392
Si       3.71887579       2.74740769       0.99979855
Si       0.26804477       2.74740769       6.77640346
Si       3.97618848       2.73309659       6.81052910
Si       0.01073208       2.73309659       0.96567291
8
Lattice="3.9452349483143654 0.0 0.0 0.0 5.5361385815187605 -1.229626136402389e-15 0.0 8.763204060278736e-27 7.776306353379771" Properties=species:S:1:pos:R:3 unique_starting_index=2 config_type=initial n_minim_iter=16 stress="0.9946392701179456 5.977791366834203e-16 -3.4199895496201803e-15 5.977791366834203e-16 0.038720351525718726 -2.6669643276854618e-16 -3.4199895496201803e-15 -2.6669643276854618e-16 1.1641976854083744" pbc="T T T"
Si       2.19995247       2.86215006       4.85553913
Si       1.74528248       2.86215006       2.92076723
Si       1.91641964       2.90097084       2.85500068
Si       2.02881531       2.90097084       4.92130568
Si       3.71789996       2.67398852       0.96738595
Si       0.22733499       2.67398852       6.80892040
Si       4.00143278       2.63516774       6.74315385
Si      -0.05619783       2.63516774       1.03315250
8
Lattice="3.8948681718677127 0.0 0.0 0.0 5.419775062369777 -1.2208567242446204e-15 0.0 9.997866684790274e-29 7.720847516314965" Properties=species:S:1:pos:R:3 unique_starting_index=2 config_type=initial n_minim_iter=17 stress="1.1325024814002196 3.3446657377035687e-16 2.7138794906336083e-15 3.3446657377035687e-16 -0.3808494342445318 -1.5422246904604642e-15 2.7138794906336083e-15 -1.5422246904604642e-15 1.1299495512819946" pbc="T T T"
Si       2.10373178       2.83872203       4.81775264
Si       1.79113639       2.83872203       2.90309487
Si       1.78688533       2.86920746       2.77316925
Si       2.10798284       2.86920746       4.94767826
Si       3.73857048       2.58105304       0.95732888
Si       0.15629770       2.58105304       6.76351863
Si       4.05541692       2.55056760       6.63359301
Si      -0.16054875       2.55056760       1.08725450
8
Lattice="3.8758551289711187 0.0 0.0 0.0 5.4663535778884995 -1.2117341633268084e-15 0.0 9.376732346186706e-30 7.663155323278111" Properties=species:S:1:pos:R:3 unique_starting_index=2 config_type=initial n_minim_iter=18 stress="0.7139821288557987 -2.960910244531255e-16 7.022759402156118e-15 -2.960910244531255e-16 -0.11724634669660507 -4.313492337760544e-15 7.022759402156118e-15 -4.313492337760544e-15 0.7247396405299784" pbc="T T T"
Si       2.05590514       2.87872237       4.78603030
Si       1.81994999       2.87872237       2.87712502
Si       1.72493992       2.90904969       2.72954884
Si       2.15091520       2.90904969       4.93360649
Si       3.75787756       2.58763121       0.95445264
Si       0.11797757       2.58763121       6.70870268
Si       4.08884277       2.55730389       6.56112650
Si      -0.21298764       2.55730389       1.10202883
8
Lattice="3.932488194297001 0.0 0.0 0.0 5.471093840969143 -1.1958521131874963e-15 0.0 1.1413226555428835e-30 7.562715292161419" Properties=species:S:1:pos:R:3 unique_starting_index=2 config_type=initial n_minim_iter=19 stress="0.978436800697532 -6.012983570889106e-17 6.6431101328994424e-15 -6.012983570889106e-17 -0.18421133604240586 -1.8422758174638962e-15 6.6431101328994424e-15 -1.8422758174638962e-15 0.8232633293069666" pbc="T T T"
Si       2.05795303       2.83337432       4.78328230
Si       1.87453517       2.83337432       2.77943299
Si       1.76810302       2.91248148       2.71067499
Si       2.16438517       2.91248148       4.85204030
Si       3.84077926       2.63771953       1.00192466
Si       0.09170893       2.63771953       6.56079063
Si       4.13062927       2.55861236       6.49203263
Si      -0.19814107       2.55861236       1.07068266
8
Lattice="3.9646268335483352 0.0 0.0 0.0 5.566937298897554 -1.1815620693548822e-15 0.0 4.5027852703928684e-32 7.472343303997673" Properties=species:S:1:pos:R:3 unique_starting_index=2 config_type=initial n_minim_iter=20 stress="1.050130211134412 3.194265303185746e-16 5.962404170772635e-15 3.194265303185746e-16 0.01615802331170833 -1.2292367636706369e-15 5.962404170772635e-15 -1.2292367636706369e-15 0.9393835196199605" pbc="T T T"
Si       2.08415958       2.86938816       4.76593930
Si       1.88046726       2.86938816       2.70640401
Si       1.85168131       2.84768779       2.69962014
Si       2.11294552       2.84768779       4.77272317
Si       3.86278068       2.69754914       1.02976765
Si       0.10184616       2.69754914       6.44257566
Si       4.09525894       2.71924951       6.43579179
Si      -0.13063210       2.71924951       1.03655152
8
Lattice="3.945553811922701 0.0 0.0 0.0 5.588800810143659 -1.1668972072717074e-15 0.0 9.813881406389037e-33 7.379600919290715" Properties=species:S:1:pos:R:3 unique_starting_index=2 config_type=initial n_minim_iter=21 stress="0.2685731376110178 3.4014991026789705e-16 2.3196884942426473e-15 3.4014991026789705e-16 0.002517137221291458 -4.936160663483986e-16 2.3196884942426473e-15 -4.936160663483986e-16 0.2645729993387788" pbc="T T T"
Si       2.05305344       2.81359201       4.72586761
Si       1.89250037       2.81359201       2.65373331
Si       1.88509709       2.83387244       2.67595236
Si       2.06045672       2.83387244       4.70364856
Si       3.86527728       2.77520880       1.03606715
Si       0.08027654       2.77520880       6.34353377
Si       4.03323363       2.75492837       6.36575282
Si      -0.08767981       2.75492837       1.01384810
