1
Lattice="2.4162896153976043 5.079910893012626e-17 6.790600482547133e-50 1.2081448076988022 2.0925681898348563 -1.6029077600572444e-49 -1.480261345101256e-48 6.926400903962721e-48 2.2709120095204827" Properties=species:S:1:pos:R:3 cutoff=-1.0 nneightol=1.2 n_minim_iter=1 energy=-162.3471069757375 free_energy=-162.3471069757375 pbc="T T T"
Si       0.00000000       0.00000000       0.00000000
1
Lattice="2.4219371817985427 4.877386624066009e-17 8.789518873742574e-50 1.2109685908992713 2.0974591258076276 -2.5614424876526963e-49 -1.464637330599175e-48 6.935732052883911e-48 2.260333557363323" Properties=species:S:1:pos:R:3 cutoff=-1.0 nneightol=1.2 n_minim_iter=2 stress="-0.35848618498695706 2.1404736724870197e-15 1.933798913596404e-17 2.1404736724870197e-15 -0.35848618498694307 -3.384148098793707e-17 1.933798913596404e-17 -3.384148098793707e-17 -0.3420151835372743" pbc="T T T"
Si       0.00000000       0.00000000       0.00000000
1
Lattice="2.425490853425001 4.668750876818342e-17 2.5190031906227636e-49 1.2127454267125004 2.1005366957128486 -4.3699887910432216e-49 -1.4540751054166706e-48 6.741706134170619e-48 2.253715021670636" Properties=species:S:1:pos:R:3 cutoff=-1.0 nneightol=1.2 n_minim_iter=3 stress="-0.3460290949045277 -1.3174005098875524e-16 3.3116306395338474e-16 -1.3174005098875524e-16 -0.3460290949045189 8.943819975383384e-16 3.3116306395338474e-16 8.943819975383384e-16 -0.3489489587040751" pbc="T T T"
Si       0.00000000       0.00000000       0.00000000
