2
Lattice="2.494623712723939 8.642569113274043e-17 2.494623712723939 2.494623712723939 2.494623712723939 -2.3518792767673258e-18 3.074526715808244e-17 2.494623712723939 2.494623712723939" Properties=species:S:1:pos:R:3 n_minim_iter=1 energy=-325.34461568418595 free_energy=-325.34461568418595 pbc="T T T"
Si       0.00000000       0.00000000       0.00000000
Si       1.24731186       1.24731186       1.24731186
