2
Lattice="2.745688670927285 9.5123781518582e-17 2.7456886709272847 2.745688670927285 2.7456886709272843 -2.588578090022871e-18 3.38395451346058e-17 2.7456886709272843 2.7456886709272847" Properties=species:S:1:pos:R:3 n_minim_iter=2 pbc="T T T"
Si       0.00000000       0.00000000       0.00000000
Si       1.37284434       1.37284434       1.37284434
