2
Lattice="2.6961172212599527 2.9797348259957726e-52 -6.989148210145058e-34 2.686710064595163e-50 2.6961172212599527 1.047913450575833e-16 8.942846186755704e-34 -1.34083990262636e-16 3.4497711146249306" Properties=species:S:1:pos:R:3:tags:I:1 spacegroup="P 1" unit_cell=conventional n_minim_iter=1 energy=-1704.1879132854167 free_energy=-1704.1879132854167 pbc="T T T"
Ti       1.34805861       1.34805861       1.72488556        0
Al       0.00000000      -0.00000000       0.00000000        1
