2
Lattice="2.679661163384934 -2.3089357086253563e-68 -1.9012633378253446e-52 2.3512382722366374e-68 2.679661163384934 5.962169183277308e-18 2.703080695326199e-52 -8.476587172831782e-18 3.8097512410069685" Properties=species:S:1:pos:R:3:tags:I:1 spacegroup="P 1" unit_cell=conventional n_minim_iter=1 energy=-1704.1331998243074 free_energy=-1704.1331998243074 pbc="T T T"
Ti       1.33983058       1.33983058       1.90487563        0
Al       0.00000000       0.00000000       0.00000000        1
