1
Lattice="3.1919089854953016 -0.11180155318875347 -1.925306400179572e-10 0.10937787311743988 3.1919929573627477 -6.378722501674143e-10 -1.6506434291544647 -1.540095701640721 2.2592618393090276" Properties=species:S:1:pos:R:3:spacegroup_kinds:I:1 spacegroup="P 1" unit_cell=conventional occupancy="_JSON {\"0\": {\"In\": 1}}" n_minim_iter=6 pbc="T T T"
In       0.00000000       0.00000000       0.00000000        0
