22
Lattice="9.451785398784361 -0.24144751976555998 -0.4474626397308266 -4.198364773970641 8.471615982453228 0.4474626397304443 -3.0038832698419866 -3.8743299621332 8.096975953348844" Properties=species:S:1:pos:R:3 unique_starting_index=6 config_type=initial n_minim_iter=1 energy=-3634.485000024448 free_energy=-3634.485000024448 pbc="T T T"
Si      -4.31586813       4.90719894       6.35293636
Si       3.12065403       1.64746799       5.83074517
Si       6.55492282       1.56274099       0.49502465
Si      -0.77406747       0.53901259       3.41254688
Si       6.62839542      -0.59156770       1.81876814
Si      -0.93410662       2.74857779       2.19150223
Si       3.06434558       3.88065163       4.68442906
Si      -4.34612622       2.72927182       7.60195130
Si      -0.03979166       5.36729239       2.08849794
Si       1.07030166       5.55841335       2.92138236
Si       1.08905577       4.42078312       2.07870859
Si       1.18102819       5.71368688       1.46059424
Si       1.58727687      -0.56332512       5.17559359
Si       1.88128784      -1.65070360       6.00847801
Si       1.68150047      -0.39751755       6.63638171
Si       0.54749028      -1.02527543       6.01826736
Si      -2.32876785       2.24430553       2.19691456
Si       3.75765971       2.63536138       4.92648294
Si      -2.19550842       0.64359724       3.17049301
Si      -4.18609414       3.42986039       6.34752403
Si       2.62671031       4.11508424      -0.00000000
Si       3.22395106      -2.05788874       3.82475665
22
Lattice="9.495962416238017 -0.3011744912523522 -0.3980216206032556 -4.2711395572514315 8.486540824580324 0.39802162060287555 -2.947909727008447 -3.8785303599809047 8.166349244513677" Properties=species:S:1:pos:R:3 unique_starting_index=6 config_type=initial n_minim_iter=2 stress="0.015575353576927742 -0.0006881043617507365 -0.0056932690271786586 -0.0006881043617507365 0.014936574081650719 0.0036340856284523314 -0.0056932690271786586 0.0036340856284523314 0.016014580703506236" pbc="T T T"
Si      -4.33391311       4.90772100       6.36716010
Si       3.15782873       1.60320697       5.89567749
Si       6.57831633       1.51491331       0.52983712
Si      -0.76111681       0.53211310       3.43646799
Si       6.67274772      -0.64041029       1.87265012
Si      -0.94283708       2.74315428       2.19721076
Si       3.08001072       3.84049124       4.72988125
Si      -4.34338397       2.72615432       7.63651212
Si      -0.06432591       5.35272688       2.08756331
Si       1.05620001       5.53458419       2.93422578
Si       1.07723474       4.40273697       2.08666506
Si       1.15733028       5.69134877       1.46084875
Si       1.62757314      -0.59034893       5.23212346
Si       1.93437901      -1.68329018       6.07878593
Si       1.72718938      -0.43261792       6.70550049
Si       0.59207186      -1.04779585       6.07968418
Si      -2.34180555       2.24877223       2.19680954
Si       3.78669551       2.58915467       4.98246325
Si      -2.19367136       0.64628005       3.18388599
Si      -4.19335476       3.43063951       6.36756132
Si       2.61241143       4.09268317      -0.00000000
Si       3.27402634      -2.08985242       3.88416381
22
Lattice="9.481041252511343 -0.31223899632718993 -0.3769851978402311 -4.274893590246129 8.468348198717518 0.3769851978398525 -2.9208401800975037 -3.8752203215452012 8.159725140214654" Properties=species:S:1:pos:R:3 unique_starting_index=6 config_type=initial n_minim_iter=3 stress="-0.005951105056441541 -0.007592890182198897 0.0023422700290998263 -0.007592890182198897 -0.012999719813016439 -0.0014951005845787525 0.0023422700290998263 -0.0014951005845787525 -0.001104467798167609" pbc="T T T"
Si      -4.32071338       4.89186493       6.34612529
Si       3.16400809       1.58610425       5.89705637
Si       6.56758305       1.50035472       0.54184630
Si      -0.75313531       0.52783930       3.43105798
Si       6.66678142      -0.64976028       1.88568356
Si      -0.93946117       2.73356888       2.19058505
Si       3.08116816       3.81998445       4.72866715
Si      -4.32500094       2.71359930       7.61787883
Si      -0.06712861       5.33501586       2.07867672
Si       1.05385924       5.51440060       2.92705891
Si       1.07455008       4.38785079       2.08098413
Si       1.15097210       5.67082936       1.45510227
Si       1.63732061      -0.59765972       5.23266622
Si       1.94656372      -1.68997897       6.08104842
Si       1.73832364      -0.44371410       6.70462287
Si       0.60676914      -1.05318827       6.07874101
Si      -2.33606121       2.24254719       2.18802298
Si       3.78884381       2.56975287       4.98403049
Si      -2.18510474       0.64337023       3.17569464
Si      -4.17810415       3.41834649       6.34868735
Si       2.60307383       4.07805461      -0.00000000
Si       3.28010054      -2.09372965       3.89136997
22
Lattice="9.48742872010963 -0.29183625828749876 -0.34138639093226497 -4.259076457682978 8.482731862343838 0.34138639093188483 -2.9019356567727774 -3.9117672572838753 8.154131661772377" Properties=species:S:1:pos:R:3 unique_starting_index=6 config_type=initial n_minim_iter=4 stress="0.0019471760853929812 0.01576954469786496 0.02404906612717582 0.01576954469786496 0.01658632439316965 -0.01535082308130201 0.02404906612717582 -0.01535082308130201 -0.008118729701490338" pbc="T T T"
Si      -4.29409755       4.88523216       6.31261472
Si       3.19394524       1.58111847       5.90665153
Si       6.58004631       1.51149012       0.56500301
Si      -0.74020356       0.52497390       3.42095036
Si       6.67494701      -0.64084898       1.90609374
Si      -0.92196150       2.73275506       2.18290333
Si       3.11423373       3.82874731       4.73318130
Si      -4.30124327       2.69304538       7.58912864
Si      -0.05019443       5.34396601       2.06522013
Si       1.07844519       5.52790751       2.91760039
Si       1.09421784       4.40507851       2.07134711
Si       1.16779303       5.67927034       1.44779327
Si       1.65812552      -0.60621927       5.23653127
Si       1.96645693      -1.70739755       6.08891153
Si       1.75780268      -0.46144978       6.70633839
Si       0.63301966      -1.06464236       6.08278455
Si      -2.32291174       2.23823796       2.17769134
Si       3.81939190       2.57064932       4.99183948
Si      -2.17824834       0.63490946       3.16229218
Si      -4.15282734       3.40629623       6.31782671
Si       2.61417613       4.09544781      -0.00000000
Si       3.29274653      -2.10180175       3.90637263
22
Lattice="9.502265667950061 -0.3121640179033058 -0.36547120690893936 -4.283761413302327 8.487631433579011 0.36547120690856016 -2.9173131410789224 -3.891094466405307 8.177575208572154" Properties=species:S:1:pos:R:3 unique_starting_index=6 config_type=initial n_minim_iter=5 stress="0.000494464478849894 0.0004928272127150287 0.0010365912168077396 0.0004928272127150287 0.0009519647298319673 -0.000661669284484318 0.0010365912168077396 -0.000661669284484318 0.0001798863791010578" pbc="T T T"
Si      -4.33358296       4.90933822       6.34013069
Si       3.18608648       1.57637564       5.92881976
Si       6.58887112       1.48278771       0.56090458
Si      -0.75151183       0.54440438       3.42151216
Si       6.67341315      -0.64962907       1.88328424
Si      -0.92353444       2.73266112       2.20291572
Si       3.11139368       3.83191528       4.75606305
Si      -4.34637074       2.70963855       7.61667062
Si      -0.07137226       5.34051069       2.07974480
Si       1.06405198       5.53235398       2.93359242
Si       1.08509552       4.42011160       2.07646532
Si       1.14945372       5.66005204       1.46357109
Si       1.65284099      -0.59672984       5.24398278
Si       1.95686151      -1.70738892       6.09783041
Si       1.73271434      -0.46550293       6.71400411
Si       0.63511864      -1.04591481       6.10110989
Si      -2.33010630       2.24343474       2.20370253
Si       3.81581756       2.56146931       5.00642251
Si      -2.20044772       0.64847520       3.17115269
Si      -4.18514699       3.42753068       6.33934388
Si       2.60925213       4.08773371      -0.00000000
Si       3.29247626      -2.10162924       3.90605200
22
Lattice="9.511709264497616 -0.3358737134812443 -0.3295004027207822 -4.309243273027019 8.486215098476436 0.32950040272040426 -2.878973621102985 -3.897885338464647 8.198292235356485" Properties=species:S:1:pos:R:3 unique_starting_index=6 config_type=initial n_minim_iter=6 stress="0.0017624913976727597 -0.0022040676148123916 -0.00033849086394044365 -0.0022040676148123916 -0.0002835836990807624 0.00021606299967969424 -0.00033849086394044365 0.00021606299967969424 0.0031693757170250846" pbc="T T T"
Si      -4.32911690       4.91598744       6.32592139
Si       3.20319885       1.53827091       5.96460362
Si       6.60576427       1.44751375       0.59544357
Si      -0.74721681       0.54847193       3.40901072
Si       6.67942866      -0.68065055       1.90418821
Si      -0.90652588       2.73130430       2.20187124
Si       3.13557615       3.80560669       4.78928151
Si      -4.34713887       2.70331974       7.60284866
Si      -0.08320511       5.32314221       2.08232694
Si       1.05713977       5.52632421       2.93422151
Si       1.08788290       4.39911029       2.09089485
Si       1.12997030       5.65634720       1.44992193
Si       1.68862136      -0.61232909       5.26407072
Si       1.98442872      -1.73222523       6.11596529
Si       1.77589621      -0.49152610       6.74837031
Si       0.65323532      -1.05901928       6.10739738
Si      -2.31838210       2.24062565       2.21397723
Si       3.84465947       2.52070282       5.03853347
Si      -2.21122849       0.65068209       3.15975876
Si      -4.17977341       3.42877526       6.31381541
Si       2.60123299       4.07517070      -0.00000000
Si       3.31636782      -2.11687952       3.93439591
22
Lattice="9.527646371564286 -0.3580843809454114 -0.29715715014276695 -4.336099311042005 8.491319836765115 0.29715715014238964 -2.8462514901593927 -3.906734478063935 8.223676206540018" Properties=species:S:1:pos:R:3 unique_starting_index=6 config_type=initial n_minim_iter=7 stress="0.0028910904621042336 -0.0058444012201648125 0.002379325119978905 -0.0058444012201648125 -0.002534370949190717 -0.0015187533177629601 0.002379325119978905 -0.0015187533177629601 0.006621645091872782" pbc="T T T"
Si      -4.32285511       4.91618047       6.32648276
Si       3.21676249       1.51338525       5.99177256
Si       6.63279018       1.42737572       0.62365996
Si      -0.74788832       0.53974981       3.40077895
Si       6.69980477      -0.70988469       1.93474649
Si      -0.90312101       2.73332094       2.19435059
Si       3.14975064       3.77537037       4.82289725
Si      -4.34406136       2.71050608       7.60001624
Si      -0.08484524       5.30755678       2.08232383
Si       1.05376666       5.52103403       2.92721835
Si       1.10315053       4.39815214       2.11210615
Si       1.09718671       5.64441039       1.43653706
Si       1.71796515      -0.62646506       5.29645785
Si       2.00370456      -1.74912378       6.14135237
Si       1.81159347      -0.53513729       6.78713914
Si       0.67866043      -1.05442327       6.11157005
Si      -2.30765725       2.24149272       2.22542077
Si       3.87261063       2.48311056       5.07249108
Si      -2.22437243       0.65135916       3.15118512
Si      -4.17763618       3.43512392       6.29541258
Si       2.59577353       4.06661773      -0.00000000
Si       3.34069744      -2.13240943       3.96325953
22
Lattice="9.522447884970653 -0.36592915682250055 -0.2942180836551571 -4.341026288344421 8.483301753073397 0.29421808365478025 -2.8387113704090186 -3.9003843962477447 8.223515152753274" Properties=species:S:1:pos:R:3 unique_starting_index=6 config_type=initial n_minim_iter=8 stress="-0.0003879250668537977 -0.002020511199429244 -6.90043026934781e-05 -0.002020511199429244 -0.0022636014844320805 4.4046319170764584e-05 -6.90043026934781e-05 4.4046319170764584e-05 0.0009017928042316309" pbc="T T T"
Si      -4.32514547       4.91618929       6.32942045
Si       3.20974682       1.50815355       5.99664695
Si       6.65088434       1.42769798       0.62495929
Si      -0.75695315       0.52250097       3.38553942
Si       6.70035469      -0.71994560       1.93265011
Si      -0.89953559       2.72957918       2.18831279
Si       3.13533613       3.75037326       4.83797573
Si      -4.34384687       2.73340420       7.59855586
Si      -0.10195684       5.28237603       2.09020833
Si       1.05336903       5.53506508       2.92809365
Si       1.13763377       4.39380101       2.12458645
Si       1.06853213       5.62271493       1.40512947
Si       1.73839958      -0.61456835       5.29542150
Si       1.99560868      -1.76889634       6.13330682
Si       1.81151872      -0.56391257       6.81838568
Si       0.66773583      -1.01862696       6.09892870
Si      -2.29748871       2.23897143       2.24049968
Si       3.88093531       2.46266435       5.08225781
Si      -2.23888294       0.65665197       3.14125733
Si      -4.18159110       3.44161782       6.27723355
Si       2.59071080       4.05868630      -0.00000000
Si       3.34186826      -2.13315677       3.96464853
22
Lattice="9.511693070982707 -0.34698119360868357 -0.32068500723418336 -4.319311527412398 8.48152397594098 0.3206850072338058 -2.866500753780374 -3.8947291107805397 8.204254901048541" Properties=species:S:1:pos:R:3 unique_starting_index=6 config_type=initial n_minim_iter=9 stress="-0.0037751338230107207 0.004996985037173465 -0.00354488587112039 0.004996985037173465 0.0008636561010331843 0.0022627454872085847 -0.00354488587112039 0.0022627454872085847 -0.00696477169652892" pbc="T T T"
Si      -4.34208697       4.93668150       6.33017173
Si       3.19396941       1.52062927       5.99548602
Si       6.64879374       1.45576934       0.59545758
Si      -0.76104101       0.51045643       3.38314500
Si       6.67976919      -0.70440081       1.88808387
Si      -0.87989004       2.72671741       2.19476818
Si       3.10930272       3.76441988       4.82110990
Si      -4.34529387       2.74898172       7.60879731
Si      -0.08759984       5.28235492       2.10165040
Si       1.05053760       5.55189533       2.91598053
Si       1.15295584       4.40926604       2.13232073
Si       1.06152331       5.62610951       1.40053511
Si       1.72706820      -0.60439551       5.28827436
Si       1.96175561      -1.75022738       6.10260449
Si       1.78975922      -0.56318548       6.80371978
Si       0.64752320      -0.99256271       6.07193417
Si      -2.30285332       2.23875261       2.24387769
Si       3.86860551       2.48626077       5.05859338
Si      -2.24007806       0.66105796       3.14566151
Si      -4.18560562       3.44053721       6.28106222
Si       2.59619077       4.06727140      -0.00000000
Si       3.32259616      -2.12085515       3.94178494
22
Lattice="9.523218074895578 -0.3558708333697674 -0.30490303206963343 -4.332227119617997 8.488235077806705 0.3049030320692565 -2.852502570126348 -3.902131244460398 8.218752536088152" Properties=species:S:1:pos:R:3 unique_starting_index=6 config_type=initial n_minim_iter=10 stress="0.0006019697210681013 0.0026011629368860403 -0.00016781298244450396 0.0026011629368860403 0.003016675455165597 0.00010711714918670384 -0.00016781298244450396 0.00010711714918670384 -0.0010583854394788914" pbc="T T T"
Si      -4.35161242       4.93398579       6.32801125
Si       3.21129562       1.51681256       6.01784674
Si       6.66195222       1.45191011       0.60801200
Si      -0.76107475       0.50440489       3.38447470
Si       6.69453579      -0.70658370       1.89600276
Si      -0.87724223       2.71625136       2.19564431
Si       3.11643545       3.75226080       4.83427783
Si      -4.34033615       2.75189022       7.61074053
Si      -0.08598542       5.27821370       2.10273997
Si       1.04963940       5.55251322       2.91239156
Si       1.15351559       4.40763137       2.13450783
Si       1.05886850       5.62601532       1.39918377
Si       1.74200500      -0.61235222       5.30636098
Si       1.97131779      -1.75790868       6.11601256
Si       1.80478969      -0.57303533       6.81956876
Si       0.65980299      -1.00014534       6.08424470
Si      -2.30491416       2.23754432       2.23799631
Si       3.87740017       2.48163769       5.07200402
Si      -2.23397596       0.65968666       3.14674852
Si      -4.18475136       3.43746818       6.28565926
Si       2.59549548       4.06618213      -0.00000000
Si       3.33535775      -2.12900103       3.95692475
22
Lattice="9.523762561531047 -0.35960548329468195 -0.295412234401114 -4.335843882627794 8.487156606161802 0.2954122344007372 -2.8429664811894804 -3.9048311534223177 8.221220899012875" Properties=species:S:1:pos:R:3 unique_starting_index=6 config_type=initial n_minim_iter=11 stress="0.0013076395825502376 -0.0012202195824593525 0.0011476514698204384 -0.0012202195824593525 0.00017488808099523336 -0.0007325604486745445 0.0011476514698204384 -0.0007325604486745445 0.0020865208912699026" pbc="T T T"
Si      -4.35499135       4.93439451       6.32604680
Si       3.21428879       1.51326299       6.03040560
Si       6.66947294       1.45371459       0.61186025
Si      -0.76085026       0.49426944       3.38157461
Si       6.70013654      -0.71179772       1.89540306
Si      -0.86952959       2.70958018       2.19058633
Si       3.11361135       3.74068420       4.83964628
Si      -4.33232965       2.75677172       7.60936065
Si      -0.08861709       5.26457295       2.09907557
Si       1.05660419       5.55661389       2.90727050
Si       1.15082663       4.40575421       2.13290842
Si       1.05877416       5.62289489       1.40044035
Si       1.75232832      -0.60700825       5.31395039
Si       1.96958897      -1.76873863       6.12214532
Si       1.81153511      -0.57713455       6.82078055
Si       0.66876850      -1.00607460       6.08831247
Si      -2.29844950       2.23884996       2.23136704
Si       3.87581246       2.47383193       5.07921906
Si      -2.23085165       0.65226025       3.14200184
Si      -4.18036948       3.44010329       6.28526609
Si       2.59395934       4.06377557      -0.00000000
Si       3.34039804      -2.13221831       3.96290433
22
Lattice="9.520899528205005 -0.35780683875307157 -0.2979632758804772 -4.333007032147629 8.485316942777844 0.29796327588010035 -2.8451037051748282 -3.90343807047887 8.217839850626405" Properties=species:S:1:pos:R:3 unique_starting_index=6 config_type=initial n_minim_iter=12 stress="0.0007446589619496616 7.906847919917714e-07 0.0004401355844910885 7.906847919917714e-07 0.0007453929687006344 -0.0002809441104166424 0.0004401355844910885 -0.0002809441104166424 0.0007441541488991431" pbc="T T T"
Si      -4.36502786       4.93639166       6.32934681
Si       3.21064385       1.51997001       6.03738906
Si       6.67392365       1.45962319       0.60289811
Si      -0.75942747       0.48458285       3.37762107
Si       6.70275449      -0.70908838       1.88248751
Si      -0.86279290       2.70087079       2.18645631
Si       3.10206269       3.73924859       4.84021877
Si      -4.33098129       2.76468945       7.61494174
Si      -0.08792987       5.25782837       2.10304107
Si       1.05609532       5.56318689       2.90306236
Si       1.15373584       4.40622449       2.13414992
Si       1.05664603       5.62186831       1.39824115
Si       1.75636740      -0.60330939       5.31477749
Si       1.96104473      -1.76956178       6.11479878
Si       1.80936270      -0.57810401       6.81959870
Si       0.66583301      -1.00184471       6.08368993
Si      -2.28712618       2.24020873       2.23027494
Si       3.86883426       2.46967076       5.08465154
Si      -2.23382535       0.64557182       3.13318831
Si      -4.18320468       3.45049962       6.28552818
Si       2.59394625       4.06375506      -0.00000000
Si       3.33789791      -2.13062245       3.95993828
22
Lattice="9.51962709840962 -0.36256174959280363 -0.2929409120524275 -4.336784273701444 8.482160884964351 0.29294091205205114 -2.8383454357231437 -3.9021848404765924 8.219325650639565" Properties=species:S:1:pos:R:3 unique_starting_index=6 config_type=initial n_minim_iter=13 stress="-0.0009406685028033888 -1.1189683584311676e-05 0.00045305721285129 -1.1189683584311676e-05 -0.0009510560847109097 -0.00028919214923120147 0.00045305721285129 -0.00028919214923120147 -0.000933526098389917" pbc="T T T"
Si      -4.38283496       4.94783493       6.33745408
Si       3.20250285       1.51952262       6.06357831
Si       6.68860816       1.46069907       0.59721068
Si      -0.75766383       0.46744079       3.36730793
Si       6.71126202      -0.72016273       1.86280642
Si      -0.84193513       2.68763378       2.17481248
Si       3.08748001       3.72697348       4.85201772
Si      -4.32942956       2.77971527       7.62211497
Si      -0.08772907       5.24491754       2.10693436
Si       1.05356120       5.56645287       2.89594650
Si       1.16467492       4.40390925       2.14015750
Si       1.04441571       5.61387352       1.38777472
Si       1.76715499      -0.60297971       5.32337915
Si       1.95600766      -1.77356209       6.11239128
Si       1.81401844      -0.59131026       6.83155093
Si       0.66588570      -0.99164391       6.07916814
Si      -2.26668873       2.23479714       2.22213490
Si       3.86021931       2.46196877       5.10627608
Si      -2.23042614       0.63576817       3.11304956
Si      -4.19373676       3.46485627       6.29013166
Si       2.59142141       4.05979957      -0.00000000
Si       3.34064083      -2.13237329       3.96319237
22
Lattice="9.518400658310611 -0.3591946880691207 -0.29673614154787015 -4.33321381905105 8.482466027898418 0.2967361415474936 -2.842716505043865 -3.9019789409404217 8.216480236097135" Properties=species:S:1:pos:R:3 unique_starting_index=6 config_type=initial n_minim_iter=14 stress="-0.0020705354248074957 0.0010130769077536107 -0.0010901162946715204 0.0010130769077536107 -0.0011300781456520471 0.0006958350186623107 -0.0010901162946715204 0.0006958350186623107 -0.0027171949585544286" pbc="T T T"
Si      -4.38754078       4.95065286       6.34620624
Si       3.19398336       1.52773079       6.06526586
Si       6.68849294       1.45916545       0.58927756
Si      -0.75227503       0.46819243       3.36373448
Si       6.71669660      -0.72086163       1.85447823
Si      -0.83819852       2.68506280       2.16701013
Si       3.08386595       3.73605596       4.85274575
Si      -4.33514319       2.77917098       7.62720267
Si      -0.08627045       5.25054239       2.10268774
Si       1.05651149       5.56318218       2.89774342
Si       1.16299320       4.40562123       2.13763842
Si       1.04859352       5.61573668       1.39011338
Si       1.75857511      -0.60147476       5.31873682
Si       1.95612451      -1.76966499       6.11379249
Si       1.80957842      -0.58653045       6.82636685
Si       0.66377551      -0.99224265       6.07884181
Si      -2.25857867       2.22791169       2.21036415
Si       3.84904544       2.47339411       5.11397145
Si      -2.21972944       0.63064903       3.10250878
Si      -4.20419731       3.46982467       6.30285223
Si       2.59259342       4.06163567      -0.00000000
Si       3.33784208      -2.13058681       3.95987204
22
Lattice="9.521875870884447 -0.3637488358346878 -0.29460359135093606 -4.338807794398172 8.483700857489785 0.2946035913505598 -2.839859561305801 -3.90146668863778 8.221859883362736" Properties=species:S:1:pos:R:3 unique_starting_index=6 config_type=initial n_minim_iter=15 stress="-0.0004879667041089376 -0.0001694448716886608 -0.00042899388076578855 -0.0001694448716886608 -0.0006452653867236487 0.0002738322199990868 -0.00042899388076578855 0.0002738322199990868 -0.00037980779317534037" pbc="T T T"
Si      -4.38963732       4.95372228       6.35378590
Si       3.19028442       1.52602482       6.07081711
Si       6.69155016       1.44962910       0.58811275
Si      -0.74711507       0.47014777       3.36140617
Si       6.72303867      -0.72897690       1.85643918
Si      -0.83726874       2.68620048       2.16267757
Si       3.08420530       3.73875249       4.86045371
Si      -4.34222337       2.77844133       7.63374713
Si      -0.08789556       5.25030232       2.10501614
Si       1.05300941       5.56202324       2.89898409
Si       1.16263599       4.40449881       2.13708475
Si       1.04755391       5.61307896       1.38981057
Si       1.76185527      -0.60462700       5.32287579
Si       1.95944790      -1.77072788       6.11684374
Si       1.81046237      -0.58808012       6.83204930
Si       0.66576475      -0.99252697       6.08477513
Si      -2.25613859       2.22481994       2.20457704
Si       3.84560138       2.47479083       5.12307138
Si      -2.21415559       0.62862539       3.09878850
Si      -4.21076604       3.47248336       6.31188643
Si       2.59153404       4.05997602      -0.00000000
Si       3.34100815      -2.13260776       3.96362814
22
Lattice="9.523059665358057 -0.3660955379486042 -0.2905505111176108 -4.341434774562369 8.483786621025818 0.29055051111723473 -2.8357215598096692 -3.9025169562013633 8.224120352607798" Properties=species:S:1:pos:R:3 unique_starting_index=6 config_type=initial n_minim_iter=16 stress="0.0010373994247028305 -0.0007878679701207416 0.0002904083050452807 -0.0007878679701207416 0.0003060076006346084 -0.00018537129419450414 0.0002904083050452807 -0.00018537129419450414 0.0015403054430901126" pbc="T T T"
Si      -4.39158242       4.95513605       6.35715338
Si       3.18855162       1.52536762       6.07727042
Si       6.69592723       1.44084261       0.58537325
Si      -0.73939330       0.46962035       3.35524961
Si       6.72849389      -0.73422230       1.85629942
Si      -0.83365643       2.68406689       2.15751748
Si       3.08317073       3.74222328       4.86887074
Si      -4.34789799       2.77766203       7.63874710
Si      -0.08916946       5.24615484       2.10461133
Si       1.05415722       5.56306906       2.89782635
Si       1.16629309       4.40376996       2.14053151
Si       1.04247725       5.61153179       1.38633579
Si       1.76645864      -0.60419584       5.32629400
Si       1.96036025      -1.77467979       6.11950902
Si       1.81533436      -0.59438658       6.83778455
Si       0.66770196      -0.99056690       6.08358884
Si      -2.25168745       2.22187519       2.19780498
Si       3.84263487       2.47519686       5.13066820
Si      -2.20840035       0.62505527       3.09345215
Si      -4.21380007       3.47431649       6.31686588
Si       2.59081244       4.05884555      -0.00000000
Si       3.34366905      -2.13430624       3.96678492
22
Lattice="9.521687729316891 -0.36467297408151406 -0.29174265123598386 -4.339566825946267 8.483141125538152 0.2917426512356078 -2.8369744409150477 -3.902264066085156 8.222198522739227" Properties=species:S:1:pos:R:3 unique_starting_index=6 config_type=initial n_minim_iter=17 stress="0.0007303413428852827 -0.000305762607980545 0.0003575404925236775 -0.000305762607980545 0.0004464964855547249 -0.0002282226185493883 0.0003575404925236775 -0.0002282226185493883 0.0009255133943377556" pbc="T T T"
Si      -4.39400152       4.95624999       6.36086118
Si       3.18424942       1.52909082       6.07871672
Si       6.69883671       1.43820889       0.57848846
Si      -0.73399468       0.46749774       3.34945827
Si       6.73105750      -0.73488164       1.85173915
Si      -0.83101249       2.68194902       2.15307999
Si       3.07821563       3.74725642       4.87274025
Si      -4.35276474       2.77944514       7.64371006
Si      -0.08850974       5.24344308       2.10621618
Si       1.05433935       5.56633714       2.89581121
Si       1.16781589       4.40502426       2.14137690
Si       1.04125097       5.61118189       1.38572707
Si       1.76809340      -0.60240183       5.32638731
Si       1.95636991      -1.77497020       6.11598234
Si       1.81428039      -0.59539330       6.83647145
Si       0.66694567      -0.98840467       6.08082162
Si      -2.24903430       2.22072306       2.19167782
Si       3.83646777       2.47913882       5.13160265
Si      -2.20348121       0.62137392       3.09059587
Si      -4.21534707       3.47584537       6.32226335
Si       2.59106045       4.05923408      -0.00000000
Si       3.34235664      -2.13346852       3.96522793
22
Lattice="9.520326314993572 -0.36315606737654754 -0.2931383851476981 -4.337617733203417 8.482544893711527 0.29313838514732177 -2.8384447675265467 -3.901973436735601 8.22023480119575" Properties=species:S:1:pos:R:3 unique_starting_index=6 config_type=initial n_minim_iter=18 stress="-1.9387892357469977e-05 -1.9569988948384454e-06 6.327746502137023e-05 -1.9569988948384454e-06 -2.1204609157042238e-05 -4.039080625997596e-05 6.327746502137023e-05 -4.039080625997596e-05 -1.8138730871295747e-05" pbc="T T T"
Si      -4.39499095       4.95663007       6.36200670
Si       3.18203648       1.53140275       6.07835949
Si       6.70097590       1.43749416       0.57406614
Si      -0.73144481       0.46586728       3.34530684
Si       6.73125449      -0.73410800       1.84873692
Si      -0.82977240       2.68090598       2.15136648
Si       3.07478053       3.75009414       4.87492796
Si      -4.35578399       2.78137521       7.64616866
Si      -0.08770149       5.24226103       2.10690457
Si       1.05464888       5.56810149       2.89449394
Si       1.16842750       4.40577600       2.14162197
Si       1.04111408       5.61142293       1.38561600
Si       1.76809312      -0.60108762       5.32574086
Si       1.95348712      -1.77444411       6.11333022
Si       1.81308633      -0.59512535       6.83461880
Si       0.66589971      -0.98724278       6.07861283
Si      -2.24827342       2.22030825       2.18911050
Si       3.83338895       2.48168110       5.13050347
Si      -2.20134932       0.61994224       3.08973133
Si      -4.21556490       3.47605528       6.32426268
Si       2.59135429       4.05969442      -0.00000000
Si       3.34094077      -2.13256475       3.96354821
22
Lattice="9.51977272713967 -0.36228174240564776 -0.2937607572353085 -4.336591604489923 8.48241086561722 0.29376075723493206 -2.8392056457785504 -3.9020087213657506 8.219297747321807" Properties=species:S:1:pos:R:3 unique_starting_index=6 config_type=initial n_minim_iter=19 stress="-0.0003333039116290676 0.00017245680237449804 -0.00011184441742470471 0.00017245680237449804 -0.00017320920025187502 7.139170624484105e-05 -0.00011184441742470471 7.139170624484105e-05 -0.0004433852421269627" pbc="T T T"
Si      -4.39517031       4.95705508       6.36214744
Si       3.18122344       1.53213217       6.07811699
Si       6.70414193       1.43686553       0.57095186
Si      -0.72973951       0.46390745       3.34136285
Si       6.73094395      -0.73369933       1.84742000
Si      -0.82904613       2.68075291       2.15091106
Si       3.07199656       3.75152082       4.87793489
Si      -4.35844803       2.78394702       7.64834588
Si      -0.08735330       5.24243977       2.10708352
Si       1.05478872       5.56865316       2.89429660
Si       1.16849271       4.40619399       2.14174263
Si       1.04127647       5.61190159       1.38578594
Si       1.76777376      -0.60076380       5.32500114
Si       1.95274177      -1.77408831       6.11221422
Si       1.81269125      -0.59481182       6.83351181
Si       0.66549052      -0.98704294       6.07755511
Si      -2.24796557       2.21983468       2.18807271
Si       3.83235149       2.48314134       5.13008071
Si      -2.20034890       0.61958071       3.08921703
Si      -4.21585881       3.47596583       6.32498579
Si       2.59159056       4.06006457      -0.00000000
Si       3.34028354      -2.13214523       3.96276849
22
Lattice="9.520405943650667 -0.362851977910243 -0.29324591705416675 -4.337375432960489 8.482745147847119 0.2932459170537903 -2.838696372409852 -3.902167751601561 8.220138307916084" Properties=species:S:1:pos:R:3 unique_starting_index=6 config_type=initial n_minim_iter=20 stress="9.75721022291248e-06 -3.1259509760103066e-05 3.2503697846077414e-06 -3.1259509760103066e-05 -1.926154763870094e-05 -2.0747521468382567e-06 3.2503697846077414e-06 -2.0747521468382567e-06 2.9710549870507642e-05" pbc="T T T"
Si      -4.39468087       4.95715535       6.36133542
Si       3.18235395       1.53083181       6.07827322
Si       6.70506468       1.43673684       0.57150895
Si      -0.73005919       0.46348514       3.34135638
Si       6.73043098      -0.73395063       1.84861917
Si      -0.82943579       2.68141433       2.15204880
Si       3.07210676       3.75065808       4.87878193
Si      -4.35844397       2.78457079       7.64862935
Si      -0.08771138       5.24335710       2.10668082
Si       1.05466518       5.56771116       2.89509200
Si       1.16808639       4.40589553       2.14158079
Si       1.04151527       5.61197490       1.38596784
Si       1.76748060      -0.60143149       5.32504630
Si       1.95423387      -1.77418592       6.11345748
Si       1.81316648      -0.59472338       6.83417046
Si       0.66590014      -0.98769619       6.07855751
Si      -2.24803781       2.21971527       2.18879620
Si       3.83339507       2.48247470       5.13092463
Si      -2.20088367       0.62008759       3.08921367
Si      -4.21621126       3.47602528       6.32458802
Si       2.59151525       4.05994659      -0.00000000
Si       3.34085478      -2.13250986       3.96344619
