4
Lattice="4.065585427259415 0.0 0.0 0.0 4.065585427259415 0.0 0.0 0.0 4.065585427259415" Properties=species:S:1:pos:R:3 n_minim_iter=1 energy=-439.0855730839961 free_energy=-439.0855730839961 pbc="T T T"
Al       0.00000000       0.00000000       0.00000000
Al       2.03279271       2.03279271       0.00000000
Al       2.03279271       0.00000000       2.03279271
Al       0.00000000       2.03279271       2.03279271
