4
Lattice="3.6741811000284557 0.0 0.0 0.0 3.6741811000284557 0.0 0.0 0.0 3.6741811000284557" Properties=species:S:1:pos:R:3 n_minim_iter=1 stress="-0.11954349002452826 -1.6585472068389009e-18 -2.7105054312137607e-18 -1.6585472068389009e-18 -0.11954349002452826 -9.90975508101464e-20 -2.7105054312137607e-18 -9.90975508101464e-20 -0.11954349002452823" pbc="T T T"
Al       0.00000000       0.00000000       0.00000000
Al       1.83709055       1.83709055       0.00000000
Al       1.83709055       0.00000000       1.83709055
Al       0.00000000       1.83709055       1.83709055
