4
Lattice="4.160167646103808 0.0 0.0 0.0 4.160167646103808 0.0 0.0 0.0 4.160167646103808" Properties=species:S:1:pos:R:3 n_minim_iter=1 stress="0.03406946991660563 2.0561843543032146e-18 -1.6087643725090207e-19 2.0561843543032146e-18 0.03406946991660564 -1.2255917827918787e-33 -1.6087643725090207e-19 -1.2255917827918787e-33 0.03406946991660564" pbc="T T T"
Al       0.00000000       0.00000000       0.00000000
Al       2.08008382       2.08008382       0.00000000
Al       2.08008382       0.00000000       2.08008382
Al       0.00000000       2.08008382       2.08008382
