2
Lattice="4.92824822860896 -1.656986217615926e-17 1.0527366642809259e-16 -1.6569862176160063e-17 4.92824822860896 -1.3892134378495132e-16 2.46412411430448 2.46412411430448 1.3566450312614609" Properties=species:S:1:pos:R:3 cutoff=-1.0 nneightol=1.2 n_minim_iter=1 energy=-325.64487978752436 free_energy=-325.64487978752436 pbc="T T T"
Si      -0.00000000      -1.23206206      -0.33916126
Si      -0.00000000       1.23206206       0.33916126
