2
Lattice="5.018301832400416 2.5706893981145e-19 -4.653507090763805e-17 2.570689398108445e-19 5.018301832400416 1.5003476375110608e-16 2.509150916200208 2.509150916200208 1.3692472512135605" Properties=species:S:1:pos:R:3 cutoff=-1.0 nneightol=1.2 n_minim_iter=1 energy=-325.53658655882697 free_energy=-325.53658655882697 pbc="T T T"
Si      -0.00000000      -1.25457546      -0.34231181
Si      -0.00000000       1.25457546       0.34231181
2
Lattice="5.044168230972385 1.4698517582132638e-17 -3.116625542795743e-16 1.4698517582131836e-17 5.044168230972386 6.629874905902824e-16 2.5220841154861926 2.522084115486193 1.3552403095709558" Properties=species:S:1:pos:R:3 cutoff=-1.0 nneightol=1.2 n_minim_iter=2 stress="0.05982347790670738 2.62839737293933e-17 1.0802598585687436e-16 2.62839737293933e-17 0.059823477906707875 4.992897118696609e-17 1.0802598585687436e-16 4.992897118696609e-17 0.058548263947434495" pbc="T T T"
Si      -0.00000000      -1.26104206      -0.33881008
Si      -0.00000000       1.26104206       0.33881008
