2
Lattice="4.7704347318809 -1.6039258243682477e-17 1.0190256890180374e-16 -1.6039258243683238e-17 4.7704347318809 -1.3447277260592754e-16 2.38521736594045 2.38521736594045 1.313202232467506" Properties=species:S:1:pos:R:3 cutoff=-1.0 nneightol=1.2 n_minim_iter=1 energy=-325.70331279695614 free_energy=-325.70331279695614 pbc="T T T"
Si      -0.00000000      -1.19260868      -0.32830056
Si      -0.00000000       1.19260868       0.32830056
