2
Lattice="4.522897741847586 -8.59106877205788e-18 -2.518429305097711e-18 -8.591068772058671e-18 4.522897741847586 9.402822700077408e-17 2.261448870923793 2.261448870923793 1.2361276587657324" Properties=species:S:1:pos:R:3 cutoff=-1.0 nneightol=1.2 n_minim_iter=1 energy=-325.2500083905793 free_energy=-325.2500083905793 pbc="T T T"
Si      -0.00000000      -1.13072443      -0.30903191
Si      -0.00000000       1.13072444       0.30903191
2
Lattice="4.530792689557052 -5.13150702716837e-18 -8.089617364713617e-17 -5.1315070271688815e-18 4.530792689557055 2.4327445191172985e-16 2.265396344778526 2.2653963447785275 1.231823484560165" Properties=species:S:1:pos:R:3 cutoff=-1.0 nneightol=1.2 n_minim_iter=2 stress="-0.20326411587677906 -4.923664695984503e-17 1.1765483021267613e-17 -4.923664695984503e-17 -0.20326411587677767 -1.512089801455244e-16 1.1765483021267613e-17 -1.512089801455244e-16 -0.2029443170064914" pbc="T T T"
Si      -0.00000000      -1.13269817      -0.30795587
Si      -0.00000000       1.13269817       0.30795587
