2
Lattice="3.2176372669670954 0.0 0.0 0.0 3.2176372669670963 0.0 0.0 0.0 3.2176372669670954" Properties=species:S:1:pos:R:3 Minim_Constant_Volume=F n_minim_iter=1 energy=-3187.0953988162373 free_energy=-3187.0953988162373 pbc="T T T"
Ti       0.00000000       0.00000000       0.00000000
Ti       1.60881863       1.60881863       1.60881863
