20
Lattice="10.353785093567973 -1.0872330788951955e-12 -9.225701272093436e-15 5.176892546784928 8.966640916353962 -7.918909257162354e-15 5.176892546784306 2.9888803054509614 8.496061822028429" Properties=species:S:1:pos:R:3 unique_starting_index=8 config_type=initial n_minim_iter=1 energy=-3316.7596352175187 free_energy=-3316.7596352175187 pbc="T T T"
Si      12.92657585       5.54441075       3.55695278
Si       9.44268171       8.42253769       3.55695278
Si       8.69209774       3.96633339       3.55695278
Si       7.48402784       6.37163867       6.61771306
Si      11.44755532       3.29553889       6.61771306
Si      12.12977213       8.26610427       6.61771306
Si      11.13750840       2.74668159       8.27458391
Si      12.76011996       8.27202442       8.27458391
Si       7.16372693       6.91457583       8.27458391
Si       6.13221772       7.59529977      -0.53444489
Si      11.06373879       1.51300644      -0.53444489
Si      13.86539879       8.82497563      -0.53444489
Si      13.54326297       9.33120725       7.00293286
Si      16.20866128       7.06320616       7.00293286
Si      16.84010869      10.50550935       7.00293286
Si      10.50327209       0.95894440       0.95345527
Si      14.62546394       8.61662825       0.95345527
Si       5.93261926       8.35770918       0.95345527
Si      15.53067764       8.96664092      -0.68904147
Si      15.53067764       8.96664092       6.13021696
20
Lattice="10.385475531804765 -1.0912141354417253e-12 -9.147792810627834e-15 5.192737765903329 8.99408564092408 -8.086540044409622e-15 5.192737765902702 2.9980285469743344 8.498445174490449" Properties=species:S:1:pos:R:3 unique_starting_index=8 config_type=initial n_minim_iter=2 stress="0.014656807828322689 7.471919803048048e-15 -1.4275548061024552e-15 7.471919803048048e-15 0.014656807828310555 2.137327605127768e-15 -1.4275548061024552e-15 2.137327605127768e-15 0.010640087722646664" pbc="T T T"
Si      12.96603660       5.56154935       3.55790942
Si       9.47148975       8.44814240       3.55790942
Si       8.71890026       3.97847953       3.55790942
Si       7.50690705       6.39090431       6.61958742
Si      11.48281206       3.30572006       6.61958742
Si      12.16670749       8.29154692       6.61958742
Si      11.17168444       2.75509339       8.27694890
Si      12.79912798       8.29741583       8.27694890
Si       7.18561418       6.93566206       8.27694890
Si       6.15097341       7.61840788      -0.53440229
Si      11.09772961       1.51769529      -0.53440229
Si      13.90772359       8.85206812      -0.53440229
Si      13.58484872       9.35951653       7.00497149
Si      16.25842316       7.08506583       7.00497149
Si      16.89136803      10.53767456       7.00497149
Si      10.53572515       0.96337335       0.95381276
Si      14.66878270       8.64251895       0.95381276
Si       5.95191876       8.38227898       0.95381276
Si      15.57821330       8.99408564      -0.68965394
Si      15.57821330       8.99408564       6.13122417
20
Lattice="10.378740749948111 -1.091042862258087e-12 -9.308475174820431e-15 5.1893703749750015 8.988253148747278 -7.952727366308066e-15 5.1893703749743745 2.9960843829153996 8.466705370192628" Properties=species:S:1:pos:R:3 unique_starting_index=8 config_type=initial n_minim_iter=3 stress="0.008174743611558328 9.600757386124232e-15 -3.0165498934863113e-15 9.600757386124232e-15 0.008174743611549214 4.499067294432525e-15 -3.0165498934863113e-15 4.499067294432525e-15 -0.017808723735421528" pbc="T T T"
Si      12.95710828       5.55881526       3.54444340
Si       9.46485213       8.44177730       3.54444340
Si       8.71426185       3.97591374       3.54444340
Si       7.50160912       6.38532855       6.59512205
Si      11.47682021       3.30391979       6.59512205
Si      12.15779293       8.28725796       6.59512205
Si      11.16518016       2.75324259       8.24616297
Si      12.79051340       8.29270836       8.24616297
Si       7.18052870       6.93055535       8.24616297
Si       6.14649031       7.61351055      -0.53138418
Si      11.09074281       1.51626148      -0.53138418
Si      13.89898915       8.84673428      -0.53138418
Si      13.57629539       9.35227567       6.97930122
Si      16.24876625       7.08127886       6.97930122
Si      16.87927175      10.53120492       6.97930122
Si      10.52986012       0.96741574       0.95022644
Si      14.65474483       8.63541849       0.95022644
Si       5.95161730       8.37367206       0.95022644
Si      15.56811113       8.98825315      -0.68866206
Si      15.56811113       8.98825315       6.10482156
20
Lattice="10.344717181859751 -1.0860011729273145e-12 -9.31172672029398e-15 5.172358590930818 8.958787874455364 -7.854535027724917e-15 5.172358590930194 2.9862626248180986 8.517445743110025" Properties=species:S:1:pos:R:3 unique_starting_index=8 config_type=initial n_minim_iter=4 stress="-0.0065992682435635375 9.934652174738647e-15 -4.72348110856183e-15 9.934652174738647e-15 -0.006599268243569386 4.4068255760181606e-15 -4.72348110856183e-15 4.4068255760181606e-15 0.004479485849725533" pbc="T T T"
Si      12.91318886       5.54297992       3.56514492
Si       9.43247852       8.41165963       3.56514492
Si       8.68848418       3.96293620       3.56514492
Si       7.47593775       6.36047549       6.63513113
Si      11.44313214       3.29411426       6.63513113
Si      12.11508166       8.26298600       6.63513113
Si      11.13044112       2.74414236       8.29631167
Si      12.74771681       8.26717358       8.29631167
Si       7.15599362       6.90625980       8.29631167
Si       6.12520570       7.58756118      -0.53426642
Si      11.05581078       1.51080314      -0.53426642
Si      13.85313508       8.81921143      -0.53426642
Si      13.53267970       9.31849466       7.02232689
Si      16.19775861       7.06039707       7.02232689
Si      16.82078903      10.49747190       7.02232689
Si      10.49647870       0.97216107       0.95852169
Si      14.59927884       8.60413667       0.95852169
Si       5.93839402       8.34127802       0.95852169
Si      15.51707578       8.95878788      -0.69738526
Si      15.51707578       8.95878788       6.13167227
20
Lattice="10.355478837049402 -1.0858565796019602e-12 -9.322844726929543e-15 5.177739418525641 8.968107741236365 -7.867195789470822e-15 5.177739418525019 2.9893692470784345 8.47446320656277" Properties=species:S:1:pos:R:3 unique_starting_index=8 config_type=initial n_minim_iter=5 stress="-0.0008325075967302076 1.4113925014767039e-14 -7.118141751137925e-15 1.4113925014767039e-14 -0.0008325075967423281 6.042909317003299e-15 -7.118141751137925e-15 6.042909317003299e-15 -0.005448678674911806" pbc="T T T"
Si      12.90890678       5.57752705       3.54134179
Si       9.42622417       8.39067768       3.54134179
Si       8.73130557       3.96801075       3.54134179
Si       7.47897712       6.32623280       6.60688065
Si      11.49279081       3.31386777       6.60688065
Si      12.09466860       8.29611491       6.60688065
Si      11.15447706       2.74984917       8.26233935
Si      12.75227991       8.28513592       8.26233935
Si       7.15967955       6.90123040       8.26233935
Si       6.11388489       7.58263905      -0.51449347
Si      11.08725719       1.50346010      -0.51449347
Si      13.86529444       8.85011634      -0.51449347
Si      13.56667942       9.29077007       6.99875834
Si      16.23705391       7.10370399       6.99875834
Si      16.79592145      10.50984917       6.99875834
Si      10.50265373       0.96986089       0.96888808
Si      14.61970665       8.61063449       0.96888808
Si       5.94407614       8.35572011       0.96888808
Si      15.53321826       8.96810774      -0.72856531
Si      15.53321826       8.96810774       5.98103440
20
Lattice="10.36148440626264 -1.0885254122075943e-12 -9.325015105549716e-15 5.1807422031322625 8.973308716739217 -7.874159581462958e-15 5.18074220313164 2.9911029055793836 8.498819549244608" Properties=species:S:1:pos:R:3 unique_starting_index=8 config_type=initial n_minim_iter=6 stress="-0.002741293858652485 1.8347358619556456e-14 -8.545479687896263e-15 1.8347358619556456e-14 -0.0027412938586604835 7.196388838608191e-15 -8.545479687896263e-15 7.196388838608191e-15 -0.004242172631364937" pbc="T T T"
Si      12.90482794       5.59900100       3.54856304
Si       9.42167775       8.37640832       3.54856304
Si       8.75794755       3.97120811       3.54856304
Si       7.48494293       6.31054832       6.62849590
Si      11.51540219       3.32687656       6.62849590
Si      12.08410810       8.30919255       6.62849590
Si      11.15942281       2.75993608       8.29597834
Si      12.75308266       8.28437560       8.29597834
Si       7.17194777       6.90230575       8.29597834
Si       6.10834434       7.59794177      -0.50750254
Si      11.08878606       1.49101049      -0.50750254
Si      13.88732283       8.85766518      -0.50750254
Si      13.58148819       9.27875916       7.02348810
Si      16.25806798       7.12253421       7.02348810
Si      16.78712367      10.51863278       7.02348810
Si      10.50863691       0.96888075       0.97703141
Si      14.62957503       8.61630614       0.97703141
Si       5.94624130       8.36143054       0.97703141
Si      15.54222661       8.97330872      -0.73464811
Si      15.54222661       8.97330872       5.91819844
20
Lattice="10.37375621404733 -1.0917868794542864e-12 -9.282727599986533e-15 5.186878107024609 8.983936414031117 -7.933688501714027e-15 5.186878107023987 2.9946454713433486 8.4441247111755" Properties=species:S:1:pos:R:3 unique_starting_index=8 config_type=initial n_minim_iter=7 stress="-0.005422564326948048 1.65169315600474e-14 -6.8453843214406076e-15 1.65169315600474e-14 -0.005422564326950333 4.341407780301964e-15 -6.8453843214406076e-15 4.341407780301964e-15 -0.013503065023560907" pbc="T T T"
Si      12.88593740       5.65848619       3.51935666
Si       9.40415095       8.33030605       3.51935666
Si       8.83118030       3.97908060       3.51935666
Si       7.49895006       6.26920017       6.60140441
Si      11.56875079       3.35968117       6.60140441
Si      12.05356780       8.33899149       6.60140441
Si      11.16756368       2.79515264       8.26783873
Si      12.74305741       8.27381752       8.26783873
Si       7.21064757       6.89890267       8.26783873
Si       6.12413284       7.61020409      -0.49418677
Si      11.09481594       1.49855257      -0.49418677
Si      13.90231986       8.85911617      -0.49418677
Si      13.60049988       9.24679966       6.99311728
Si      16.31305530       7.15497857       6.99311728
Si      16.76834779      10.55003102       6.99311728
Si      10.52311174       0.96526935       0.99156204
Si      14.65000879       8.63064742       0.99156204
Si       5.94814813       8.37195606       0.99156204
Si      15.56063432       8.98393641      -0.73182160
Si      15.56063432       8.98393641       5.64157854
20
Lattice="10.37019408893099 -1.0901920295515522e-12 -9.279892006415159e-15 5.185097044466439 8.980851523188907 -7.944500653728656e-15 5.185097044465819 2.993617174395947 8.506069558077513" Properties=species:S:1:pos:R:3 unique_starting_index=8 config_type=initial n_minim_iter=8 stress="0.0013868810410898019 1.416243868380139e-14 -5.585097162065677e-15 1.416243868380139e-14 0.0013868810410795499 2.0506152571571913e-15 -5.585097162065677e-15 2.0506152571571913e-15 0.0013936325852965032" pbc="T T T"
Si      12.86009381       5.68813588       3.54526235
Si       9.38427110       8.29310000       3.54526235
Si       8.86621736       3.98046717       3.54526235
Si       7.50599091       6.25357384       6.66253578
Si      11.57163892       3.37359188       6.66253578
Si      12.03295245       8.33453733       6.66253578
Si      11.16291067       2.81605284       8.33514292
Si      12.72015955       8.25933780       8.33514292
Si       7.22751206       6.88631240       8.33514292
Si       6.12140922       7.60563234      -0.48563961
Si      11.09301276       1.49847972      -0.48563961
Si      13.89616030       8.85759099      -0.48563961
Si      13.58199235       9.22089100       7.05948642
Si      16.33406024       7.15190491       7.05948642
Si      16.74982082      10.56975866       7.05948642
Si      10.52167997       0.96461106       1.00053662
Si      14.64417051       8.62973661       1.00053662
Si       5.94473179       8.36735537       1.00053662
Si      15.55529114       8.98085152      -0.72216247
Si      15.55529114       8.98085152       5.52277585
20
Lattice="10.357794358156243 -1.086321222409809e-12 -9.274463997997712e-15 5.178897179079063 8.970113041337893 -7.933846696696259e-15 5.178897179078447 2.99003768044561 8.488022654710928" Properties=species:S:1:pos:R:3 unique_starting_index=8 config_type=initial n_minim_iter=9 stress="-0.00026401769546802796 1.6139916629251408e-14 -7.07013865841511e-15 1.6139916629251408e-14 -0.00026401769548540805 5.787977785019047e-16 -7.07013865841511e-15 5.787977785019047e-16 0.0034731793318423733" pbc="T T T"
Si      12.83396151       5.69494177       3.54159771
Si       9.36664372       8.26706581       3.54159771
Si       8.87277785       3.97821850       3.54159771
Si       7.51709739       6.25764183       6.65857901
Si      11.53776323       3.38117639       6.65857901
Si      12.01852246       8.30140787       6.65857901
Si      11.14153014       2.83101966       8.31381794
Si      12.69308871       8.23333831       8.31381794
Si       7.23876424       6.87586812       8.31381794
Si       6.10950866       7.59025895      -0.49194769
Si      11.08747732       1.49586023      -0.49194769
Si      13.87639711       8.85410691      -0.49194769
Si      13.55554676       9.20788496       7.05519874
Si      16.32134741       7.13550537       7.05519874
Si      16.73318046      10.56694879       7.05519874
Si      10.51019702       0.96718507       1.00173637
Si      14.62288337       8.61850508       1.00173637
Si       5.94030270       8.35453593       1.00173637
Si      15.53669154       8.97011304      -0.69191430
Si      15.53669154       8.97011304       5.43113415
20
Lattice="10.304280854332786 -1.0799239201228134e-12 -9.143735762065762e-15 5.152140427167329 8.923768987581262 -7.852529941996432e-15 5.152140427166717 2.974589662526736 8.56846083584394" Properties=species:S:1:pos:R:3 unique_starting_index=8 config_type=initial n_minim_iter=10 stress="-0.0033051386639845162 1.3424997584994188e-14 -5.739316389371882e-15 1.3424997584994188e-14 -0.0033051386640008664 -9.849522087304236e-16 -5.739316389371882e-15 -9.849522087304236e-16 0.008939324251861053" pbc="T T T"
Si      12.75864398       5.67553038       3.58249463
Si       9.31408623       8.21154462       3.58249463
Si       8.84011236       3.96046298       3.58249463
Si       7.51318688       6.24903706       6.72610948
Si      11.44014344       3.38209217       6.72610948
Si      11.95951226       8.21640875       6.72610948
Si      11.06694116       2.84137379       8.39576264
Si      12.61438925       8.16356529       8.39576264
Si       7.23151216       6.84259890       8.39576264
Si       6.08194096       7.53206252      -0.48966851
Si      11.04463375       1.50108411      -0.48966851
Si      13.78626787       8.81439134      -0.48966851
Si      13.47550186       9.16481132       7.12866780
Si      16.23813221       7.08772128       7.12866780
Si      16.65562978      10.51877437       7.12866780
Si      10.46276719       0.96656268       0.99760920
Si      14.54011028       8.57774084       0.99760920
Si       5.90996510       8.30323446       0.99760920
Si      15.45642129       8.92376899      -0.66289423
Si      15.45642129       8.92376899       5.40247231
20
Lattice="10.288501760382994 -1.0810176789933512e-12 -9.078859984730891e-15 5.144250880192433 8.910103891372046 -7.800730290305187e-15 5.144250880191822 2.970034630456997 8.566428611459319" Properties=species:S:1:pos:R:3 unique_starting_index=8 config_type=initial n_minim_iter=11 stress="-0.0013417575148494583 1.289186101309573e-14 -5.012294821510507e-15 1.289186101309573e-14 -0.0013417575148737162 -1.7500351002521661e-15 -5.012294821510507e-15 -1.7500351002521661e-15 0.0011517971840167927" pbc="T T T"
Si      12.74015989       5.66652544       3.58562641
Si       9.29956860       8.20003939       3.58562641
Si       8.82577681       3.95364296       3.58562641
Si       7.52275560       6.26010885       6.73375915
Si      11.39421243       3.38484303       6.73375915
Si      11.94853726       8.17525590       6.73375915
Si      11.03339852       2.84662206       8.38908903
Si      12.59505725       8.13189237       8.38908903
Si       7.23704953       6.84169335       8.38908903
Si       6.06903252       7.51548523      -0.49074266
Si      11.03388613       1.49819372      -0.49074266
Si      13.76258664       8.80652883      -0.49074266
Si      13.44775542       9.13418922       7.13231483
Si      16.23118767       7.07900321       7.13231483
Si      16.61931484      10.51711925       7.13231483
Si      10.45114290       0.96484153       0.99619470
Si      14.51585480       8.56853448       0.99619470
Si       5.89850759       8.28683177       0.99619470
Si      15.43275264       8.91010389      -0.65694665
Si      15.43275264       8.91010389       5.36085969
20
Lattice="10.254408780008154 -1.0784152854513298e-12 -9.028513840856769e-15 5.1272043900050095 8.880578504276716 -7.669454875965422e-15 5.127204390004399 2.9601928347585535 8.569396280097603" Properties=species:S:1:pos:R:3 unique_starting_index=8 config_type=initial n_minim_iter=12 stress="0.00011537007757473498 1.2881492804662459e-14 -4.909296226694014e-15 1.2881492804662459e-14 0.00011537007755797692 -1.0659547742252789e-15 -4.909296226694014e-15 -1.0659547742252789e-15 -0.00046287306424757404" pbc="T T T"
Si      12.70041764       5.64743222       3.58973916
Si       9.26778898       8.17516820       3.58973916
Si       8.79501973       3.93855659       3.58973916
Si       7.53344917       6.24915101       6.75091999
Si      11.33016945       3.39958285       6.75091999
Si      11.89960773       8.11242315       6.75091999
Si      10.97950890       2.85518817       8.39762979
Si      12.54639763       8.08093954       8.39762979
Si       7.23731982       6.82502930       8.39762979
Si       6.04064930       7.48089708      -0.49328268
Si      11.00984600       1.49090721      -0.49328268
Si      13.71273105       8.78935272      -0.49328268
Si      13.40547781       9.07696345       7.14182535
Si      16.19960650       7.07100261       7.14182535
Si      16.53975521      10.49376945       7.14182535
Si      10.42348125       0.96512571       0.99505581
Si      14.46125356       8.54443671       0.99505581
Si       5.87849154       8.25159460       0.99505581
Si      15.38161317       8.88057851      -0.65604023
Si      15.38161317       8.88057851       5.28202632
20
Lattice="10.213274194894707 -1.0708756574815299e-12 -9.035683638588161e-15 5.106637097448279 8.844954908594342 -7.547565449137609e-15 5.106637097447673 2.9483183028644304 8.573321523733394" Properties=species:S:1:pos:R:3 unique_starting_index=8 config_type=initial n_minim_iter=13 stress="0.005503816407928467 1.56755540911776e-14 -3.890844149338071e-15 1.56755540911776e-14 0.005503816407913744 -2.520219235160418e-16 -3.890844149338071e-15 -2.520219235160418e-16 -0.006578169534710692" pbc="T T T"
Si      12.67171482       5.60523750       3.58927086
Si       9.23641291       8.17140819       3.58927086
Si       8.73169486       3.91326412       3.58927086
Si       7.55725161       6.23759690       6.77735987
Si      11.24600521       3.42597343       6.77735987
Si      11.83656577       8.02633949       6.77735987
Si      10.92088094       2.86078382       8.42069182
Si      12.48859647       8.02736841       8.42069182
Si       7.23034519       6.80175759       8.42069182
Si       6.01051642       7.43836581      -0.49915699
Si      10.97947644       1.48607700      -0.49915699
Si      13.64982974       8.76546701      -0.49915699
Si      13.34396660       8.98945805       7.14777594
Si      16.18274025       7.06148503       7.14777594
Si      16.43302704      10.48392164       7.14777594
Si      10.39258530       0.96427031       0.98804970
Si      14.39517316       8.51810773       0.98804970
Si       5.85206413       8.20753178       0.98804970
Si      15.31991130       8.84495491      -0.66567161
Si      15.31991130       8.84495491       5.20371829
20
Lattice="10.16590277043609 -1.0647611931655774e-12 -9.013141562988084e-15 5.0829513852189665 8.803930051599727 -7.551573805271064e-15 5.082951385218362 2.9346433505328933 8.593072664125778" Properties=species:S:1:pos:R:3 unique_starting_index=8 config_type=initial n_minim_iter=14 stress="0.006334586456695365 1.4113986971181095e-14 -4.356382279554949e-15 1.4113986971181095e-14 0.006334586456683981 -2.776359391005474e-17 -4.356382279554949e-15 -2.776359391005474e-17 -0.006674398806716792" pbc="T T T"
Si      12.65516771       5.53772121       3.58937978
Si       9.20841445       8.19083612       3.58937978
Si       8.63412616       3.87930278       3.58937978
Si       7.59263023       6.21828704       6.82739771
Si      11.15029588       3.46626714       6.82739771
Si      11.75478221       7.92330592       6.82739771
Si      10.86538981       2.86287407       8.46868353
Si      12.41978897       7.97826656       8.46868353
Si       7.21252955       6.76671948       8.46868353
Si       5.97497514       7.38874720      -0.50939012
Si      10.94547519       1.48010666      -0.50939012
Si      13.57725798       8.73900625      -0.50939012
Si      13.26772987       8.89215244       7.15020462
Si      16.16301347       7.04411489       7.15020462
Si      16.31581914      10.47552282       7.15020462
Si      10.35307861       0.96323208       0.97603968
Si      14.32108279       8.48441304       0.97603968
Si       5.82354692       8.16021498       0.97603968
Si      15.24885416       8.80393005      -0.68274796
Si      15.24885416       8.80393005       5.17890339
20
Lattice="10.164242097702136 -1.0672406178275565e-12 -9.045510743927185e-15 5.0821210488519935 8.80249186682475 -7.412456617121022e-15 5.082121048851386 2.9341639556078993 8.600882040359137" Properties=species:S:1:pos:R:3 unique_starting_index=8 config_type=initial n_minim_iter=15 stress="0.01019244622022808 1.3652956195382431e-14 -5.57423644467182e-15 1.3652956195382431e-14 0.010192446220218669 4.791310278687188e-16 -5.57423644467182e-15 4.791310278687188e-16 0.0032272221368910147" pbc="T T T"
Si      12.68843045       5.49920059       3.57781880
Si       9.22182157       8.23890281       3.57781880
Si       8.58247429       3.86688034       3.57781880
Si       7.62543885       6.20283620       6.85019710
Si      11.14395105       3.50240566       6.85019710
Si      11.72333640       7.89974187       6.85019710
Si      10.87725927       2.84816714       8.49312817
Si      12.42326947       7.99589927       8.49312817
Si       7.19219757       6.76091732       8.49312817
Si       5.97265590       7.38541906      -0.51663564
Si      10.94619573       1.47976220      -0.51663564
Si      13.57387467       8.73980248      -0.51663564
Si      13.24756714       8.87318704       7.13253768
Si      16.18453734       7.03613616       7.13253768
Si      16.30698497      10.49815240       7.13253768
Si      10.34764472       0.96300980       0.96760115
Si      14.32067089       8.47981830       0.96760115
Si       5.82441069       8.16215564       0.96760115
Si      15.24636315       8.80249187      -0.69909580
Si      15.24636315       8.80249187       5.26459698
20
Lattice="10.141434628546925 -1.0667134784326915e-12 -8.95154368886262e-15 5.070717314274388 8.782740019140306 -7.074079038517895e-15 5.070717314273781 2.927580006379753 8.620212321235122" Properties=species:S:1:pos:R:3 unique_starting_index=8 config_type=initial n_minim_iter=16 stress="-0.015404262438956717 1.4475576672585846e-14 -5.069469095670408e-15 1.4475576672585846e-14 -0.01540426243897223 4.557484461147744e-16 -5.069469095670408e-15 4.557484461147744e-16 0.000856977451157289" pbc="T T T"
Si      12.67808467       5.46824720       3.56760610
Si       9.20818594       8.24541980       3.56760610
Si       8.53803328       3.85181304       3.56760610
Si       7.65334376       6.16393415       6.89694056
Si      11.11807382       3.54602304       6.89694056
Si      11.65288631       7.85552285       6.89694056
Si      10.85192096       2.82954223       8.51310318
Si      12.40645333       7.98326811       8.51310318
Si       7.16592961       6.75266969       8.51310318
Si       5.95532058       7.36205618      -0.51540127
Si      10.92948130       1.47643082      -0.51540127
Si      13.53950201       8.72699304      -0.51540127
Si      13.18348364       8.83923531       7.10836618
Si      16.17755975       6.99761409       7.10836618
Si      16.27541245      10.51137067       7.10836618
Si      10.31468205       0.96347056       0.96667593
Si      14.29113826       8.45104141       0.96667593
Si       5.81848358       8.15096807       0.96667593
Si      15.21215195       8.78274002      -0.69986446
Si      15.21215195       8.78274002       5.35640198
20
Lattice="10.176462710449472 -1.069160084623102e-12 -8.832630205285805e-15 5.088231355225664 8.813075227913757 -6.861180651798444e-15 5.088231355225056 2.9376917426375675 8.618576248315602" Properties=species:S:1:pos:R:3 unique_starting_index=8 config_type=initial n_minim_iter=17 stress="-0.002139342900636677 1.3764386925885423e-14 -3.867641306587624e-15 1.3764386925885423e-14 -0.002139342900644014 -4.3544544917216536e-16 -3.867641306587624e-15 -4.3544544917216536e-16 0.0009581255413886188" pbc="T T T"
Si      12.70200477       5.50290169       3.55913412
Si       9.23627038       8.24880796       3.55913412
Si       8.59111299       3.87444081       3.55913412
Si       7.69322517       6.15099931       6.90719908
Si      11.17939118       3.58702878       6.90719908
Si      11.65677179       7.88812237       6.90719908
Si      10.89078371       2.81796113       8.49337175
Si      12.46710765       8.02271480       8.49337175
Si       7.17149678       6.78547453       8.49337175
Si       5.97480902       7.39494712      -0.50722835
Si      10.96130886       1.47686283      -0.50722835
Si      13.59327027       8.75434051      -0.50722835
Si      13.19752588       8.87286241       7.07255712
Si      16.24650094       6.99296147       7.07255712
Si      16.35005538      10.57340180       7.07255712
Si      10.34767167       0.96376012       0.97652520
Si      14.34444884       8.47946648       0.97652520
Si       5.83726763       8.18292386       0.97652520
Si      15.26469407       8.81307523      -0.68879989
Si      15.26469407       8.81307523       5.43653897
20
Lattice="10.168811012435386 -1.0701139562573009e-12 -8.749091828685909e-15 5.084405506218618 8.806448663051473 -6.575211762720931e-15 5.084405506218012 2.935482887683473 8.653484697270642" Properties=species:S:1:pos:R:3 unique_starting_index=8 config_type=initial n_minim_iter=18 stress="0.007274009412199489 1.1039652647184657e-14 -3.9149218959319175e-15 1.1039652647184657e-14 0.007274009412189756 -1.9401353452237155e-15 -3.9149218959319175e-15 -1.9401353452237155e-15 0.006371687282570465" pbc="T T T"
Si      12.67078364       5.51338825       3.56889115
Si       9.22749593       8.21652639       3.56889115
Si       8.60815348       3.88298269       3.56889115
Si       7.75031920       6.12108594       6.96838417
Si      11.16144651       3.65143035       6.96838417
Si      11.59466734       7.84038104       6.96838417
Si      10.87039115       2.80417029       8.51999782
Si      12.47394375       8.01194974       8.51999782
Si       7.16209815       6.79677731       8.51999782
Si       5.95359742       7.37707708      -0.50200048
Si      10.97208716       1.46742806      -0.50200048
Si      13.58074847       8.76839218      -0.50200048
Si      13.13892713       8.83056095       7.04899354
Si      16.28947936       6.96336420       7.04899354
Si      16.33124307      10.62542084       7.04899354
Si      10.35374329       0.96313575       0.98339378
Si      14.32665036       8.48503683       0.98339378
Si       5.82603940       8.16472474       0.98339378
Si      15.25321652       8.80644866      -0.67268994
Si      15.25321652       8.80644866       5.50337954
20
Lattice="10.178387796047884 -1.0685623488898786e-12 -8.799150032050852e-15 5.089193898024865 8.814742400946447 -6.436184512594974e-15 5.089193898024261 2.938247466981798 8.65929989982145" Properties=species:S:1:pos:R:3 unique_starting_index=8 config_type=initial n_minim_iter=19 stress="0.004417461611134971 1.0284265671965588e-14 -4.167645875423435e-15 1.0284265671965588e-14 0.00441746161112671 -3.4982951003761886e-15 -4.167645875423435e-15 -3.4982951003761886e-15 0.0003050481786453687" pbc="T T T"
Si      12.65354047       5.54295117       3.58171272
Si       9.22966884       8.18681191       3.58171272
Si       8.65195409       3.89972173       3.58171272
Si       7.73899900       6.12390594       6.96912849
Si      11.18381798       3.64021676       6.96912849
Si      11.61234642       7.86536210       6.96912849
Si      10.87967622       2.80259435       8.51320429
Si      12.48981959       8.02077882       8.51320429
Si       7.16566759       6.80611164       8.51320429
Si       5.95319475       7.38165440      -0.49919646
Si      10.98747799       1.46479069      -0.49919646
Si      13.59449066       8.78303972      -0.49919646
Si      13.14537257       8.84579648       7.04226407
Si      16.30179264       6.96132834       7.04226407
Si      16.35557989      10.63710238       7.04226407
Si      10.37439910       0.96166021       0.98688675
Si      14.33675387       8.50366306       0.98688675
Si       5.82401043       8.16416153       0.98688675
Si      15.26758170       8.81474240      -0.66581145
Si      15.26758170       8.81474240       5.53432900
20
Lattice="10.175277672171406 -1.066707941643478e-12 -8.666458602265658e-15 5.087638836086623 8.812048954660497 -6.3534915635114845e-15 5.087638836086023 2.9373496515531494 8.655954235235123" Properties=species:S:1:pos:R:3 unique_starting_index=8 config_type=initial n_minim_iter=20 stress="0.0022939556687043613 1.3762330808640805e-14 -3.460073901052094e-15 1.3762330808640805e-14 0.0022939556686926705 -3.494720077190264e-15 -3.460073901052094e-15 -3.494720077190264e-15 -0.002452987428808603" pbc="T T T"
Si      12.65164807       5.53953262       3.58396033
Si       9.22735534       8.18688232       3.58396033
Si       8.64682961       3.89768297       3.58396033
Si       7.74947849       6.11950633       6.97144483
Si      11.17616817       3.65149207       6.97144483
Si      11.60018637       7.85309951       6.97144483
Si      10.88042764       2.79855538       8.51148564
Si      12.48672148       8.02344905       8.51148564
Si       7.15868391       6.80209349       8.51148564
Si       5.95231120       7.37899127      -0.50384306
Si      10.98400586       1.46535708      -0.50384306
Si      13.58951597       8.77974957      -0.50384306
Si      13.13817608       8.83821824       7.03364252
Si      16.30262346       6.95888512       7.03364252
Si      16.34794999      10.63904350       7.03364252
Si      10.37705570       0.95915715       0.98228439
Si      14.33137304       8.50721527       0.98228439
Si       5.81740429       8.15772549       0.98228439
Si      15.26291651       8.81204896      -0.67489675
Si      15.26291651       8.81204896       5.55578375
20
Lattice="10.173710191640332 -1.0664898597187742e-12 -8.630988511172496e-15 5.086855095821084 8.810691476700649 -6.229278221973502e-15 5.086855095820484 2.9368971588998662 8.665743667694004" Properties=species:S:1:pos:R:3 unique_starting_index=8 config_type=initial n_minim_iter=21 stress="-8.003953123115173e-05 1.339439354623356e-14 -4.439194982697106e-15 1.339439354623356e-14 -8.003953124646668e-05 -4.7270029155118555e-15 -4.439194982697106e-15 -4.7270029155118555e-15 -0.0016415483785902816" pbc="T T T"
Si      12.65034519       5.54169297       3.59480738
Si       9.22300090       8.18467381       3.59480738
Si       8.64778450       3.89501617       3.59480738
Si       7.75539964       6.11727745       6.98557979
Si      11.17200290       3.65773438       6.98557979
Si      11.59372805       7.84637113       6.98557979
Si      10.88131077       2.79671393       8.52424824
Si      12.48473970       8.02513458       8.52424824
Si       7.15508012       6.79953444       8.52424824
Si       5.95114223       7.37755938      -0.51184375
Si      10.98269543       1.46506066      -0.51184375
Si      13.58729292       8.77876292      -0.51184375
Si      13.13293376       8.83152838       7.03699168
Si      16.30633577       6.95769007       7.03699168
Si      16.34242634      10.64285598       7.03699168
Si      10.38106013       0.95670956       0.97491640
Si      14.32835554       8.51190701       0.97491640
Si       5.81171491       8.15276639       0.97491640
Si      15.26056529       8.81069148      -0.68584312
Si      15.26056529       8.81069148       5.58525318
