14
Lattice="5.739501965642343 -1.2126685668171606 -4.308171092268089e-14 -1.1734389390973343 4.334511484101066 2.2502977102918453e-14 1.1804705525856356e-13 -5.819239483545189e-14 17.36466304883299" Properties=species:S:1:pos:R:3 unique_starting_index=0 config_type=initial n_minim_iter=1 energy=-2284.1799473405335 free_energy=-2284.1799473405335 pbc="T T T"
Si       2.04539667       0.15575898      14.66289144
Si       0.23763485       1.40516248       5.98055991
Si       2.52066636       2.96608394       2.70177161
Si       4.32842818       1.71668043      11.38410314
Si       4.33974461       0.42961495       6.96111669
Si       3.68278887      -0.08136206      15.64344822
Si       0.22631842       2.69222796      10.40354636
Si       0.88327415       3.20320498       1.72121483
Si       2.00045588       1.12347809       6.57059471
Si       0.28257564       0.43744337      15.25292623
Si       2.56560715       1.99836483      10.79406834
Si       4.28348739       2.68439954       2.11173681
Si       2.86975098      -0.60633428      -0.00000000
Si      -0.58671947       2.16725574       8.68233152
14
Lattice="5.751400043788231 -1.211364810893145 -4.315822633821888e-14 -1.1794731076690095 4.3128051416372655 2.247125588732586e-14 1.1749211843090566e-13 -5.791883356013549e-14 17.283032117806666" Properties=species:S:1:pos:R:3 unique_starting_index=0 config_type=initial n_minim_iter=2 stress="-0.01494880189000525 0.0019146026871619565 -1.31905612152651e-17 0.0019146026871619565 -0.006450702722542563 6.91130447008161e-16 -1.31905612152651e-17 6.91130447008161e-16 -0.0022958568136318847" pbc="T T T"
Si       2.04976603       0.15316359      14.59416595
Si       0.23619744       1.39755658       5.95264989
Si       2.52216090       2.94827674       2.68886617
Si       4.33572950       1.70388375      11.33038223
Si       4.34816574       0.42348399       6.92890312
Si       3.68919777      -0.08412863      15.57041918
Si       0.22376119       2.67795634      10.35412900
Si       0.88272917       3.18556897       1.71261294
Si       2.00310287       1.11583149       6.54023436
Si       0.28286060       0.43488867      15.18175042
Si       2.56882407       1.98560884      10.74279775
Si       4.28906634       2.66655166       2.10128169
Si       2.87570002      -0.60568241      -0.00000000
Si      -0.58973655       2.15640257       8.64151606
14
Lattice="5.78362583890833 -1.216580162760961 -4.3394778813832136e-14 -1.1900174796014191 4.312723966917853 2.2542665755825008e-14 1.1733715067437243e-13 -5.78424407618977e-14 17.260236437984428" Properties=species:S:1:pos:R:3 unique_starting_index=0 config_type=initial n_minim_iter=3 stress="0.0044348602713938316 -0.002857938993218009 -1.1054685817994709e-15 -0.002857938993218009 -0.0010736998199017836 -7.555951673517929e-17 -1.1054685817994709e-15 -7.555951673517929e-17 0.0018640771618294286" pbc="T T T"
Si       2.06168297       0.15107113      14.57529627
Si       0.23512121       1.39700077       5.94517806
Si       2.53192539       2.94507267       2.68494016
Si       4.35848715       1.69914303      11.31505838
Si       4.37215287       0.41897021       6.92032921
Si       3.70827715      -0.08747847      15.55044743
Si       0.22145549       2.67717360      10.33990723
Si       0.88533121       3.18362227       1.70978901
Si       2.01249767       1.11360336       6.53246377
Si       0.28430651       0.43446855      15.16258199
Si       2.58111069       1.98254045      10.72777266
Si       4.30930185       2.66167526       2.09765445
Si       2.89181292      -0.60829008      -0.00000000
Si      -0.59500874       2.15636198       8.63011822
14
Lattice="5.801251649350423 -1.1937765099722935 -4.343818166307523e-14 -1.1740428373137477 4.323878381730164 2.2471448861695065e-14 1.165223337324655e-13 -5.744076916493783e-14 17.14037727155536" Properties=species:S:1:pos:R:3 unique_starting_index=0 config_type=initial n_minim_iter=4 stress="-0.0011826037559530798 -0.0006102610249716318 -1.047523114276236e-15 -0.0006102610249716318 0.008447282152939446 -4.480007470455547e-16 -1.047523114276236e-15 -4.480007470455547e-16 -0.009053471766849638" pbc="T T T"
Si       2.07722208       0.16118508      14.47950332
Si       0.23638233       1.40386586       5.90931468
Si       2.54998673       2.96891680       2.66087395
Si       4.39082648       1.72623601      11.23106259
Si       4.40082342       0.43927790       6.87544311
Si       3.71403264      -0.06800348      15.44563174
Si       0.22638539       2.69082397      10.26493417
Si       0.91317618       3.19810535       1.69474553
Si       2.01919697       1.12839153       6.49334742
Si       0.29440743       0.43665940      15.06353606
Si       2.60801184       2.00171034      10.64702985
Si       4.33280138       2.69344247       2.07684121
Si       2.90062582      -0.59688825      -0.00000000
Si      -0.58702142       2.16193919       8.57018864
14
Lattice="5.824937904475368 -1.1568778807406894 -4.347554910663839e-14 -1.1588649389358363 4.286745745719861 2.22438289410895e-14 1.1731773653604515e-13 -5.783287038167482e-14 17.257380627903423" Properties=species:S:1:pos:R:3 unique_starting_index=0 config_type=initial n_minim_iter=5 stress="0.003936164609368909 0.003492751303586924 -1.01661768250422e-15 0.003492751303586924 -0.0022267520793902724 -1.6716744966727132e-16 -1.01661768250422e-15 -1.6716744966727132e-16 0.000963671886091035" pbc="T T T"
Si       2.09312716       0.17034250      14.58335767
Si       0.23990932       1.39459143       5.95466736
Si       2.57294580       2.95952536       2.67402296
Si       4.42616365       1.73527644      11.30271327
Si       4.43265844       0.45523677       6.92488064
Si       3.72531594      -0.04718072      15.55357096
Si       0.23341452       2.67463110      10.33249998
Si       0.94075702       3.17704858       1.70380967
Si       2.02586886       1.13081542       6.54458140
Si       0.30716763       0.43411851      15.17327171
Si       2.64020411       1.99905245      10.71279923
Si       4.35890534       2.69574935       2.08410892
Si       2.91246895      -0.57843894      -0.00000000
Si      -0.57943247       2.14337287       8.62869031
14
Lattice="5.8243807280959565 -1.207466948249239 -4.364129525166129e-14 -1.1959366306445582 4.291571494777988 2.2512018765512746e-14 1.177587573144159e-13 -5.805027568000592e-14 17.32225456480231" Properties=species:S:1:pos:R:3 unique_starting_index=0 config_type=initial n_minim_iter=6 stress="0.002287691348752598 -0.0015408381557194973 -2.3915184833164802e-15 -0.0015408381557194973 -0.0028077977309412046 -1.7253330887831684e-16 -2.3915184833164802e-15 -1.7253330887831684e-16 0.0014048529892867752" pbc="T T T"
Si       2.08845984       0.15214813      14.64148266
Si       0.22576221       1.38990414       5.98035538
Si       2.53998426       2.93195641       2.68077191
Si       4.40268189       1.69420041      11.34189919
Si       4.42398213       0.41300915       6.95639223
Si       3.71462064      -0.07842382      15.61751952
Si       0.20446196       2.67109540      10.36586233
Si       0.91382345       3.16252837       1.70473505
Si       1.99620193       1.11149053       6.57966848
Si       0.31802012       0.43056175      15.24079576
Si       2.63224216       1.97261402      10.74258609
Si       4.31042398       2.65354280       2.08145881
Si       2.91219036      -0.60373347      -0.00000000
Si      -0.59796832       2.14578575       8.66112728
14
Lattice="5.8101419348994305 -1.181058433606509 -4.345599811636163e-14 -1.170498551041241 4.303797047506199 2.2380057886645182e-14 1.1727631581363929e-13 -5.781245165096346e-14 17.25128766026236" Properties=species:S:1:pos:R:3 unique_starting_index=0 config_type=initial n_minim_iter=7 stress="-0.0015242967556078585 0.002337122233046252 -2.042925461398288e-15 0.002337122233046252 0.005237067687606934 -1.0965161997770516e-15 -2.042925461398288e-15 -1.0965161997770516e-15 0.0007762803997530026" pbc="T T T"
Si       2.09296840       0.16900744      14.57575111
Si       0.22685329       1.39236186       5.95010728
Si       2.54667498       2.95373117       2.67553655
Si       4.41279009       1.73037675      11.30118038
Si       4.40250042       0.43262517       6.94193034
Si       3.72746320      -0.05231430      15.56757417
Si       0.23714296       2.69011344      10.30935732
Si       0.91218018       3.17505291       1.68371349
Si       1.97467924       1.12646670       6.58942529
Si       0.34514245       0.43490261      15.21506912
Si       2.66496415       1.99627192      10.66186237
Si       4.29450093       2.68783600       2.03621854
Si       2.90507097      -0.59052922      -0.00000000
Si      -0.58524928       2.15189852       8.62564383
14
Lattice="5.766904685473128 -1.2027073852499335 -4.323461601296943e-14 -1.1762018708382607 4.312346079383826 2.2447479220559202e-14 1.1744683794980883e-13 -5.789651212544485e-14 17.276371381584053" Properties=species:S:1:pos:R:3 unique_starting_index=0 config_type=initial n_minim_iter=8 stress="-0.006439231316884177 0.001278873032167589 -1.6754535236737185e-15 0.001278873032167589 0.0067140664058919315 -1.4017367501414135e-15 -1.6754535236737185e-15 -1.4017367501414135e-15 0.011989102065002009" pbc="T T T"
Si       2.09430611       0.16512350      14.58976031
Si       0.20104530       1.38969585       5.95157462
Si       2.49639671       2.94451520       2.68661107
Si       4.38965752       1.71994284      11.32479677
Si       4.34982342       0.41012219       6.95532829
Si       3.71243267      -0.05801023      15.59351398
Si       0.24087939       2.69951650      10.32104309
Si       0.87827014       3.16764893       1.68285740
Si       1.93696031       1.11818083       6.63469610
Si       0.35839110       0.43663852      15.27288179
Si       2.65374251       1.99145787      10.64167528
Si       4.23231171       2.67300017       2.00348959
Si       2.88345234      -0.60135369      -0.00000000
Si      -0.58810094       2.15617304       8.63818569
14
Lattice="5.7698245190128326 -1.2013917619079426 -4.3250056478326114e-14 -1.1730384589771559 4.325441224187242 2.2469858369579325e-14 1.1603063533175595e-13 -5.719838186089728e-14 17.06804868164463" Properties=species:S:1:pos:R:3 unique_starting_index=0 config_type=initial n_minim_iter=9 stress="-0.010014529896280286 0.0022802129361802555 -2.462347943077755e-15 0.0022802129361802555 0.0014610203084080345 -1.0463735706056243e-15 -2.462347943077755e-15 -1.0463735706056243e-15 -0.009485845849587492" pbc="T T T"
Si       2.11635900       0.17256286      14.40474185
Si       0.18203403       1.38946187       5.87071750
Si       2.48042706       2.95148660       2.66330684
Si       4.41475203       1.73458759      11.19733118
Si       4.33370789       0.40554044       6.86232535
Si       3.73450966      -0.04490747      15.39634969
Si       0.26307817       2.71850902      10.20572333
Si       0.86227640       3.16895693       1.67169899
Si       1.91681394       1.12082989       6.58715127
Si       0.38157909       0.44119484      15.12117561
Si       2.67997212       2.00321957      10.48089741
Si       4.21520697       2.68285462       1.94687307
Si       2.88491226      -0.60069588      -0.00000000
Si      -0.58651923       2.16272061       8.53402434
14
Lattice="5.798039068505542 -1.2199624474517041 -4.3504096371653323e-14 -1.1923334347498258 4.327799122696702 2.2608929702291235e-14 1.1540453389329865e-13 -5.688973932818872e-14 16.97594947180504" Properties=species:S:1:pos:R:3 unique_starting_index=0 config_type=initial n_minim_iter=10 stress="0.006410677172920011 -0.0031925573126678707 -1.6865829147133879e-15 -0.0031925573126678707 0.0024700214569477394 -1.0889747953267544e-15 -1.6865829147133879e-15 -1.0889747953267544e-15 -0.0017802268471039245" pbc="T T T"
Si       2.14182238       0.17380349      14.32435046
Si       0.16103044       1.38011485       5.83637572
Si       2.46388325       2.93403319       2.65159902
Si       4.44467520       1.72772183      11.13957375
Si       4.33442856       0.38070323       6.81277366
Si       3.76646333      -0.04674734      15.30074840
Si       0.27127708       2.72713345      10.16317581
Si       0.83924230       3.15458401       1.67520107
Si       1.89175688       1.11218620       6.57816753
Si       0.41109593       0.44173213      15.06614227
Si       2.71394875       1.99565047      10.39778194
Si       4.19460970       2.66610454       1.90980720
Si       2.89901953      -0.60998122      -0.00000000
Si      -0.59616672       2.16389956       8.48797474
14
Lattice="5.805000555472251 -1.214944046858849 -4.353460374668324e-14 -1.1899748135734283 4.327761087371835 2.2592768049732955e-14 1.1494214428447294e-13 -5.666180006595433e-14 16.907932190586532" Properties=species:S:1:pos:R:3 unique_starting_index=0 config_type=initial n_minim_iter=11 stress="0.0035444855021120854 -0.0006341118118611316 -7.426863049228458e-16 -0.0006341118118611316 -0.00249153010476574 -8.111864980953412e-16 -7.426863049228458e-16 -8.111864980953412e-16 -0.0012642496334203351" pbc="T T T"
Si       2.15639387       0.18577159      14.26346133
Si       0.15111900       1.37063693       5.80949523
Si       2.45863187       2.92704545       2.64447086
Si       4.46390674       1.74218012      11.09843696
Si       4.32512806       0.37795022       6.77315391
Si       3.78738537      -0.03648574      15.22712001
Si       0.28989768       2.73486682      10.13477828
Si       0.82764038       3.14930278       1.68081218
Si       1.87269145       1.11111591       6.56527745
Si       0.43482143       0.44529261      15.01924354
Si       2.74233430       2.00170113      10.34265474
Si       4.18020432       2.66752443       1.88868865
Si       2.90250028      -0.60747202      -0.00000000
Si      -0.59498741       2.16388054       8.45396610
14
Lattice="5.803976637842114 -1.2223215928372064 -4.355236663713247e-14 -1.193919758782328 4.33446904731373 2.264206594950444e-14 1.1482921964718264e-13 -5.660613281474265e-14 16.89132103267019" Properties=species:S:1:pos:R:3 unique_starting_index=0 config_type=initial n_minim_iter=12 stress="-0.0005773745867461734 -0.0008096224150097304 -2.4684738569405223e-16 -0.0008096224150097304 -0.000985522846011523 -1.2902629643244168e-15 -2.4684738569405223e-16 -1.2902629643244168e-15 -0.0014913313900345219" pbc="T T T"
Si       2.16082949       0.19165193      14.24864898
Si       0.14419895       1.36442180       5.80298847
Si       2.44922739       2.92049552       2.64267205
Si       4.46585793       1.74772566      11.08833257
Si       4.31646672       0.37279662       6.76061754
Si       3.79253835      -0.03904448      15.20627806
Si       0.29359015       2.73935084      10.13070349
Si       0.81751853       3.15119194       1.68504298
Si       1.86010648       1.10693416       6.55794445
Si       0.44492196       0.44913956      15.00360496
Si       2.74995040       2.00521329      10.33337659
Si       4.16513492       2.66300789       1.88771607
Si       2.90198832      -0.61116080      -0.00000000
Si      -0.59695988       2.16723452       8.44566052
14
Lattice="5.8053913268503425 -1.2132116896596437 -4.3531454788162386e-14 -1.1868603189049736 4.336687906078931 2.2601510864619322e-14 1.1474129572389605e-13 -5.6562789898240437e-14 16.87838746733508" Properties=species:S:1:pos:R:3 unique_starting_index=0 config_type=initial n_minim_iter=13 stress="-0.001877639654693826 0.001363811290874191 -6.756172554551342e-16 0.001363811290874191 0.0002248217304557126 -1.389754116533018e-15 -6.756172554551342e-16 -1.389754116533018e-15 0.0013465925629148176" pbc="T T T"
Si       2.17333856       0.20591376      14.23521208
Si       0.13592694       1.35582435       5.79601835
Si       2.44519245       2.91756245       2.64317538
Si       4.48260406       1.76765187      11.08236912
Si       4.31102402       0.37945607       6.75386912
Si       3.80363281      -0.03092966      15.19306285
Si       0.30750699       2.74402014      10.12451835
Si       0.81489819       3.15440587       1.68532462
Si       1.84690456       1.10475786       6.55759446
Si       0.46236095       0.45698025      14.99678820
Si       2.77162645       2.01871835      10.32079300
Si       4.15617006       2.66649597       1.88159927
Si       2.90269566      -0.60660584      -0.00000000
Si      -0.59343016       2.16834395       8.43919373
14
Lattice="5.804799457014156 -1.2070570342837073 -4.35068057278399e-14 -1.1800023341583625 4.3465747537631545 2.2588022232011207e-14 1.1465579720410018e-13 -5.652064260696887e-14 16.865810677645793" Properties=species:S:1:pos:R:3 unique_starting_index=0 config_type=initial n_minim_iter=14 stress="-0.004622337637601638 0.00032260744796192166 -9.81596062212537e-16 0.00032260744796192166 0.001715569687345641 -3.229589297645756e-16 -9.81596062212537e-16 -3.229589297645756e-16 0.0009458269481965802" pbc="T T T"
Si       2.21532652       0.24598669      14.21540802
Si       0.09707204       1.32377217       5.78250268
Si       2.40947060       2.89353103       2.65040266
Si       4.52772509       1.81574555      11.08330799
Si       4.28524376       0.38701711       6.75109529
Si       3.83195426      -0.02431529      15.18400063
Si       0.33955336       2.75250061      10.11471538
Si       0.79284287       3.16383301       1.68181004
Si       1.80022844       1.08099986       6.55271445
Si       0.51217012       0.48875900      14.98561979
Si       2.82456868       2.05851786      10.31309623
Si       4.11262700       2.65075872       1.88019089
Si       2.90239973      -0.60352852      -0.00000000
Si      -0.59000117       2.17328738       8.43290534
14
Lattice="5.8056891275087645 -1.1898662392005377 -4.345524408506813e-14 -1.1691254967775646 4.337469137041065 2.2483565482016093e-14 1.151140299185739e-13 -5.6746532689434376e-14 16.933216481775002" Properties=species:S:1:pos:R:3 unique_starting_index=0 config_type=initial n_minim_iter=15 stress="-0.003703013953647793 0.0028533351543287076 -7.981022891254353e-16 0.0028533351543287076 0.0022731143774757496 -4.613339889488877e-16 -7.981022891254353e-16 -4.613339889488877e-16 0.00753829294954813" pbc="T T T"
Si       2.21901214       0.25112277      14.27231686
Si       0.09926967       1.32267868       5.80570862
Si       2.41755149       2.89648013       2.66089962
Si       4.53729396       1.82492422      11.12750787
Si       4.29466710       0.40250727       6.78786045
Si       3.82930384      -0.01857206      15.25446869
Si       0.34189653       2.74509563      10.14535603
Si       0.80725979       3.16617496       1.67874779
Si       1.81185033       1.07885446       6.56056863
Si       0.50643149       0.49494699      15.02717687
Si       2.82471331       2.06874844      10.37264785
Si       4.13013214       2.65265591       1.90603961
Si       2.90284456      -0.59493312      -0.00000000
Si      -0.58456275       2.16873457       8.46660824
14
Lattice="5.8139092387717985 -1.1780580927750748 -4.34715539673064e-14 -1.1632935224029577 4.33081924152824 2.2421633917692812e-14 1.151863999195542e-13 -5.678220815513747e-14 16.943862072883665" Properties=species:S:1:pos:R:3 unique_starting_index=0 config_type=initial n_minim_iter=16 stress="0.0015448905360995176 0.0012520101992262993 -8.074669480269454e-16 0.0012520101992262993 -9.32669998700219e-05 -1.633097774230366e-15 -8.074669480269454e-16 -1.633097774230366e-15 0.0032997983504877257" pbc="T T T"
Si       2.23709892       0.25554594      14.28078009
Si       0.08820894       1.32083463       5.80884905
Si       2.41351680       2.89721521       2.66308198
Si       4.56240678       1.83192652      11.13501302
Si       4.30056383       0.40828939       6.80955610
Si       3.83865327      -0.00996691      15.28148713
Si       0.35005189       2.74447176      10.13430598
Si       0.81196245       3.16272806       1.66237494
Si       1.81104363       1.07058779       6.55485837
Si       0.51426422       0.50579278      15.02678941
Si       2.83957208       2.08217336      10.38900370
Si       4.13635149       2.64696837       1.91707267
Si       2.90695462      -0.58902905      -0.00000000
Si      -0.58164676       2.16540962       8.47193104
14
Lattice="5.816997187476466 -1.1710009584677439 -4.346889636925719e-14 -1.1590320794977553 4.328751775951594 2.2385735636366886e-14 1.1530797416152157e-13 -5.6842139309497056e-14 16.96174558334105" Properties=species:S:1:pos:R:3 unique_starting_index=0 config_type=initial n_minim_iter=17 stress="0.002945903842149325 0.0002070364711753303 -1.7136297257325483e-15 0.0002070364711753303 -0.00124261060805722 -8.061230744427284e-16 -1.7136297257325483e-15 -8.061230744427284e-16 0.0013219963459419341" pbc="T T T"
Si       2.26398745       0.26626511      14.29487971
Si       0.06499510       1.31261029       5.81400692
Si       2.39397766       2.89148570       2.66686588
Si       4.59297001       1.84514052      11.14773867
Si       4.29229226       0.40714289       6.83540601
Si       3.85368748       0.00073156      15.31627880
Si       0.36567284       2.75060792      10.12633957
Si       0.80427763       3.15701926       1.64546678
Si       1.79475092       1.05551773       6.54687796
Si       0.53423163       0.52335768      15.02775075
Si       2.86321419       2.10223309      10.41486763
Si       4.12373348       2.63439314       1.93399484
Si       2.90849859      -0.58550048      -0.00000000
Si      -0.57951604       2.16437589       8.48087279
14
Lattice="5.815586687244956 -1.1791072809386165 -4.348647349806522e-14 -1.1641127629711023 4.332315172649217 2.2432216371872304e-14 1.151755409325966e-13 -5.677685511642614e-14 16.942264721309257" Properties=species:S:1:pos:R:3 unique_starting_index=0 config_type=initial n_minim_iter=18 stress="0.0018051848595015756 -0.0013599646085930622 -1.9062838621448923e-15 -0.0013599646085930622 -0.0017917329512606764 -7.410575360199623e-16 -1.9062838621448923e-15 -7.410575360199623e-16 -0.005598691610497065" pbc="T T T"
Si       2.27735046       0.26303660      14.28073138
Si       0.04838650       1.31356734       5.80959902
Si       2.37412346       2.89017129       2.66153334
Si       4.60308742       1.83964055      11.13266570
Si       4.27707991       0.38987983       6.83740816
Si       3.86424374       0.00761683      15.30854052
Si       0.37439401       2.76332806      10.10485656
Si       0.78723019       3.14559106       1.63372420
Si       1.78024251       1.04944389       6.53492843
Si       0.54549445       0.52716005      15.00606079
Si       2.87123141       2.10376400      10.40733629
Si       4.10597948       2.62604784       1.93620393
Si       2.90779334      -0.58955364      -0.00000000
Si      -0.58205638       2.16615759       8.47113236
14
Lattice="5.812915839184497 -1.1865526150414187 -4.3493267529880304e-14 -1.168776925202828 4.334267759551014 2.247046740633095e-14 1.1529165929514835e-13 -5.683409674423672e-14 16.95934567462128" Properties=species:S:1:pos:R:3 unique_starting_index=0 config_type=initial n_minim_iter=19 stress="0.0020048160699754087 -0.00157234942758671 -1.9533616859921002e-15 -0.00157234942758671 -0.00042703718792756496 -8.347981529662185e-16 -1.9533616859921002e-15 -8.347981529662185e-16 -0.003116609670739609" pbc="T T T"
Si       2.29545067       0.26366993      14.29821478
Si       0.02661879       1.31018765       5.81854194
Si       2.34868825       2.88404522       2.66113090
Si       4.61752013       1.83752750      11.14080373
Si       4.25582902       0.36930284       6.85470805
Si       3.87915628       0.01800212      15.33438088
Si       0.38830990       2.77841231      10.10463763
Si       0.76498264       3.12971303       1.62496479
Si       1.76010663       1.04383323       6.53120263
Si       0.56196283       0.53002435      15.01087547
Si       2.88403229       2.10388192      10.42814304
Si       4.08217608       2.61769080       1.94847020
Si       2.90645792      -0.59327631      -0.00000000
Si      -0.58438846       2.16713388       8.47967284
14
Lattice="5.805846673402493 -1.1975501338601893 -4.348206534036239e-14 -1.1754607522441445 4.335102116775537 2.2518700956430504e-14 1.1539705359890354e-13 -5.688605184742943e-14 16.97484912422422" Properties=species:S:1:pos:R:3 unique_starting_index=0 config_type=initial n_minim_iter=20 stress="-0.000677917690598227 -0.0008695514074492049 -1.9609145069342918e-15 -0.0008695514074492049 0.0005832059899411301 -1.0971652477035495e-15 -1.9609145069342918e-15 -1.0971652477035495e-15 -0.002585196341086286" pbc="T T T"
Si       2.29307254       0.25353306      14.31615247
Si       0.02212042       1.31524293       5.82872790
Si       2.33731338       2.88401892       2.65869666
Si       4.60826550       1.82230905      11.14612122
Si       4.24207559       0.35000696       6.86414723
Si       3.87896404       0.02121890      15.35157179
Si       0.38831033       2.78754503      10.11070190
Si       0.75142188       3.11633308       1.62327734
Si       1.75544390       1.05197583       6.53490526
Si       0.55974906       0.51680016      15.02232983
Si       2.87494202       2.08557615      10.43994386
Si       4.07063686       2.62075182       1.95251930
Si       2.90292334      -0.59877507      -0.00000000
Si      -0.58773038       2.16755106       8.48742456
14
Lattice="5.8041394993263005 -1.1954638889906708 -4.3463468350788205e-14 -1.1738208969740418 4.333754539720097 2.2503037029004814e-14 1.1551403870532785e-13 -5.694372074470131e-14 16.99205757512832" Properties=species:S:1:pos:R:3 unique_starting_index=0 config_type=initial n_minim_iter=21 stress="-0.0003458484213023099 0.0002528932235067422 -2.3301062654075364e-15 0.0002528932235067422 0.0001659981834774158 -6.982065763405345e-16 -2.3301062654075364e-15 -6.982065763405345e-16 0.0014472751591165314" pbc="T T T"
Si       2.30072012       0.25874051      14.33040884
Si       0.01443918       1.31040481       5.83438005
Si       2.32959848       2.87955014       2.66164874
Si       4.61587942       1.82788584      11.15767752
Si       4.23549496       0.34870899       6.87350093
Si       3.88380384       0.02497244      15.36952971
Si       0.39482364       2.78958166      10.11855665
Si       0.74651476       3.11331821       1.62252786
Si       1.74842189       1.05507841       6.53964030
Si       0.56673741       0.51406691      15.03566909
Si       2.88189671       2.08321224      10.45241727
Si       4.06358119       2.62422374       1.95638848
Si       2.90206975      -0.59773194      -0.00000000
Si      -0.58691045       2.16687727       8.49602879
