22
Lattice="11.688956331822373 1.0834215392883404 -0.6701495474819396 -0.7718622690482553 12.046571537830236 -1.2788253368937559 -7.20916769382323 -5.1516878677359665 8.96557249989741" Properties=species:S:1:pos:R:3 unique_starting_index=18 config_type=initial n_minim_iter=1 energy=-3741.6368128011068 free_energy=-3741.6368128011068 pbc="T T T"
Si       3.94643055      10.40825033       0.50378250
Si       1.41726763       1.48595053       6.53066183
Si      -4.94475786      -4.02934553       7.08302641
Si       2.74834583       0.04316606       8.31546524
Si      -9.37030175       0.32994357       9.88126087
Si       8.05724715       6.60679741       1.07777349
Si       6.00045401      -0.27537254       1.88122465
Si       0.23593772       2.06593177       7.52748885
Si       1.29537176       0.11087017       9.15766456
Si      -0.38752479       1.85629316       4.51761290
Si       4.83262825       0.81499135       2.84962588
Si      -2.10487780       4.44490969       3.59754037
Si      -5.98508958      -2.60080859       4.89303071
Si       2.15811490      10.81597479       0.87517753
Si       9.12153976       3.99371929       2.45193379
Si       5.72017853       7.70167216      -3.43735576
Si      -0.42152675      -1.57106476       0.80073604
Si       5.18641360      -1.97328237       6.01280456
Si       4.10649089       3.46276580       2.40678029
Si      -0.10492237       3.36545684       5.13823032
Si      -1.13428995       3.57649541       2.58961879
Si       0.04303084       0.57742459       6.82629416
22
Lattice="11.692494458134425 1.0805451466458156 -0.6782799081534382 -0.7728662179239292 12.040488822880956 -1.2659042720513043 -7.217812259735251 -5.140221886552683 8.95804961845651" Properties=species:S:1:pos:R:3 unique_starting_index=18 config_type=initial n_minim_iter=2 stress="-0.005500250537587908 0.004488656595496672 -0.005647963750312042 0.004488656595496672 0.0014447406167585862 0.003064528359896086 -0.005647963750312042 0.003064528359896086 -0.007279553625307427" pbc="T T T"
Si       3.94532014      10.40388245       0.50955475
Si       1.41169729       1.49119464       6.52484867
Si      -4.95131106      -4.02034957       7.07653466
Si       2.74195910       0.05026216       8.30521790
Si      -9.38116792       0.34031398       9.87966852
Si       8.05742543       6.60381201       1.07598966
Si       6.00050216      -0.27453354       1.87410226
Si       0.22971793       2.07220100       7.52192845
Si       1.28811015       0.11906486       9.14725818
Si      -0.39150023       1.85957128       4.51485360
Si       4.83127605       0.81642591       2.84339487
Si      -2.10930661       4.44658609       3.59979358
Si      -5.99041557      -2.59436412       4.89089241
Si       2.15641018      10.81192325       0.88243585
Si       9.12164395       3.99300569       2.44542615
Si       5.72277615       7.69452963      -3.43140718
Si      -0.42194856      -1.56961041       0.79885540
Si       5.18307069      -1.96770095       6.00061615
Si       4.10516355       3.46280941       2.40406749
Si      -0.10949412       3.36882007       5.13634723
Si      -1.13738410       3.57727418       2.59110351
Si       0.03730886       0.58314622       6.81999805
22
Lattice="11.718774063955196 1.056864029063099 -0.6735189311845279 -0.7977402404961351 12.025447479572325 -1.259037905783681 -7.2223626175194005 -5.114104351137275 8.95786882589695" Properties=species:S:1:pos:R:3 unique_starting_index=18 config_type=initial n_minim_iter=3 stress="0.011650948216469673 -0.009814036395215818 -0.003872016698703887 -0.009814036395215818 0.0067190948550053245 0.0030254269423957043 -0.003872016698703887 0.0030254269423957043 0.015703455691869914" pbc="T T T"
Si       3.93481196      10.38416018       0.51866679
Si       1.41311144       1.49184642       6.53380788
Si      -4.95260398      -4.00074924       7.07701732
Si       2.75067638       0.05027233       8.31329243
Si      -9.40100478       0.36422304       9.88302884
Si       8.06492540       6.58099240       1.08401373
Si       6.01616441      -0.28451633       1.87753794
Si       0.23163213       2.07569043       7.52926568
Si       1.29497724       0.12302662       9.15158177
Si      -0.39348536       1.86034564       4.51748308
Si       4.84176224       0.80771194       2.84692407
Si      -2.12199508       4.44643845       3.60388419
Si      -5.99844574      -2.57681469       4.89051054
Si       2.14261374      10.79445257       0.89130974
Si       9.13934691       3.97304774       2.45259204
Si       5.71779946       7.67194168      -3.42499885
Si      -0.41897716      -1.56623478       0.79814458
Si       5.20163605      -1.97041378       6.00464324
Si       4.11040318       3.45179081       2.40913761
Si      -0.11248455       3.36829191       5.14213119
Si      -1.14653239       3.57516969       2.59401100
Si       0.03933887       0.58525217       6.82468451
22
Lattice="11.718368734363779 1.0563896483423945 -0.6617230751993619 -0.7978521956968962 12.006825599614132 -1.2605261454328118 -7.214373003785644 -5.108519969178126 8.940436796379862" Properties=species:S:1:pos:R:3 unique_starting_index=18 config_type=initial n_minim_iter=4 stress="-0.004261758103192898 -0.00657311975859338 0.004664678785762785 -0.00657311975859338 -0.008762135575930276 -0.0014019590854794576 0.004664678785762785 -0.0014019590854794576 -0.000904557038823816" pbc="T T T"
Si       3.93550687      10.36883774       0.51996826
Si       1.41807598       1.48917240       6.52887218
Si      -4.94585573      -3.99595686       7.06420543
Si       2.75768020       0.04855472       8.30632085
Si      -9.39166017       0.36132851       9.86138928
Si       8.06659851       6.57112584       1.08871677
Si       6.01779790      -0.28419605       1.88094409
Si       0.24082741       2.07213774       7.51985163
Si       1.30387551       0.12132675       9.13911133
Si      -0.38908252       1.85643851       4.51032644
Si       4.84386758       0.80585757       2.84702057
Si      -2.11826474       4.43799723       3.59569622
Si      -5.99420865      -2.57450464       4.87929754
Si       2.14516748      10.77759957       0.89029936
Si       9.14354747       3.96731477       2.45679476
Si       5.71366914       7.66115592      -3.41606791
Si      -0.41771607      -1.56395397       0.79699108
Si       5.20717533      -1.96771986       6.00165532
Si       4.11368758       3.44590327       2.40889671
Si      -0.10634208       3.36202295       5.13484325
Si      -1.14446593       3.56828900       2.58845077
Si       0.04611352       0.58180654       6.81564711
22
Lattice="11.73306425025569 1.0716702550665862 -0.6606462809205368 -0.7840065911777367 12.014789106931715 -1.2618549145590368 -7.2281750723665965 -5.122279401143698 8.938601736749225" Properties=species:S:1:pos:R:3 unique_starting_index=18 config_type=initial n_minim_iter=5 stress="0.005461753935083618 0.00466549081956671 0.005672136045026512 0.00466549081956671 0.007073203564306449 0.0003870145815179695 0.005672136045026512 0.0003870145815179695 -0.00038668417655493895" pbc="T T T"
Si       3.95185815      10.38200308       0.51924763
Si       1.42140198       1.49197522       6.52966606
Si      -4.95533838      -4.00536840       7.06314178
Si       2.76071740       0.05050419       8.30603311
Si      -9.40082070       0.34995050       9.85875570
Si       8.08407487       6.58561009       1.08817843
Si       6.02429240      -0.27758067       1.88121838
Si       0.24554810       2.07473924       7.51915408
Si       1.30601314       0.12149818       9.13531803
Si      -0.38754597       1.85670000       4.50899970
Si       4.84971936       0.81146276       2.84593849
Si      -2.11476610       4.43815646       3.59365718
Si      -6.00398079      -2.58466741       4.87843105
Si       2.16195859      10.78801024       0.88925231
Si       9.16018870       3.98037446       2.45598974
Si       5.72865308       7.67405109      -3.41557775
Si      -0.41920892      -1.56566587       0.79693853
Si       5.21118652      -1.96311573       6.00048964
Si       4.12368840       3.45270801       2.40788914
Si      -0.10123370       3.36377768       5.13363138
Si      -1.14139697       3.56861149       2.58654183
Si       0.04746849       0.57998920       6.81412507
22
Lattice="11.733146584958789 1.0669559571667213 -0.6973632312385488 -0.7832073420422623 11.98217802207281 -1.285863066144823 -7.251540678935307 -5.1232073127411155 8.985413048187914" Properties=species:S:1:pos:R:3 unique_starting_index=18 config_type=initial n_minim_iter=6 stress="0.0022585111796249373 0.0010908508214442529 0.000390092910540728 0.0010908508214442529 -0.002595249042015832 -0.0027615852115867503 0.000390092910540728 -0.0027615852115867503 0.0020217740585064792" pbc="T T T"
Si       3.94235731      10.35331285       0.48976390
Si       1.40113697       1.47603676       6.54127831
Si      -4.97160497      -4.00395933       7.09942198
Si       2.73312632       0.03101688       8.31742872
Si      -9.42807923       0.33602146       9.90409091
Si       8.07872707       6.56127374       1.05293768
Si       6.01709179      -0.28366688       1.86828944
Si       0.22457809       2.06103280       7.53345632
Si       1.27887561       0.10234189       9.13982644
Si      -0.40534160       1.84349594       4.51599132
Si       4.83612331       0.79952318       2.83163669
Si      -2.12523029       4.41910405       3.59513857
Si      -6.01717590      -2.58658613       4.91096791
Si       2.16078219      10.75399093       0.86459566
Si       9.15505458       3.95700750       2.42325386
Si       5.73781808       7.65682450      -3.45380021
Si      -0.41697719      -1.56234736       0.80239914
Si       5.19357961      -1.96871753       5.99724763
Si       4.11920289       3.43456432       2.39136652
Si      -0.11774344       3.34190256       5.13788530
Si      -1.14994580       3.55085599       2.58294571
Si       0.02833517       0.56127918       6.82557012
22
Lattice="11.716344549215894 1.0532432454750598 -0.7117841586124155 -0.794768482768125 11.981526103233447 -1.2889422510523114 -7.245867053195463 -5.116112307792865 9.002611016766618" Properties=species:S:1:pos:R:3 unique_starting_index=18 config_type=initial n_minim_iter=7 stress="-0.016103941013531294 -0.004243085988756459 0.0057986209392340725 -0.004243085988756459 0.011275296340044543 0.006018041935577077 0.0057986209392340725 0.006018041935577077 0.003093016006519101" pbc="T T T"
Si       3.91905430      10.35054885       0.48456954
Si       1.38766335       1.47399792       6.55117111
Si      -4.96588205      -3.99662567       7.11371888
Si       2.71773814       0.02318072       8.32453051
Si      -9.42840047       0.34813573       9.92601716
Si       8.05958069       6.54966896       1.04177498
Si       6.00580854      -0.29278670       1.86336200
Si       0.21251771       2.06309215       7.54169625
Si       1.26583309       0.09827114       9.14133839
Si      -0.41659215       1.83807874       4.51951418
Si       4.82019393       0.79034296       2.82424530
Si      -2.12902396       4.42046505       3.59639738
Si      -6.01210514      -2.58167195       4.92426631
Si       2.14811603      10.74962369       0.86179560
Si       9.13795823       3.93965438       2.40916221
Si       5.72709487       7.65065254      -3.46521599
Si      -0.41108025      -1.56157098       0.80356651
Si       5.18147995      -1.97406783       5.99356568
Si       4.11042107       3.42643804       2.38552410
Si      -0.12863247       3.34300616       5.14500030
Si      -1.15667056       3.54969893       2.58332018
Si       0.02073459       0.56058870       6.83197748
22
Lattice="11.769799588481336 1.0460009936159291 -0.7588084982467707 -0.7973092372138256 11.922048900825601 -1.3273953605226771 -7.3089527190083174 -5.116831730956775 9.049573095714932" Properties=species:S:1:pos:R:3 unique_starting_index=18 config_type=initial n_minim_iter=8 stress="-0.0015284642297156961 0.0004481489917912079 -0.0016209937568301422 0.0004481489917912079 -0.00010604376786686613 -0.003158818769592231 -0.0016209937568301422 -0.003158818769592231 -0.0006707685879801188" pbc="T T T"
Si       3.92214013      10.29830836       0.43737965
Si       1.36581447       1.44643612       6.55363218
Si      -5.00816949      -3.99287391       7.15076437
Si       2.69712375      -0.01058566       8.32206519
Si      -9.50878475       0.32119246       9.96772207
Si       8.09093397       6.50634928       0.98789765
Si       6.02342196      -0.30255625       1.84361803
Si       0.18307143       2.03264223       7.53942724
Si       1.23621417       0.06583600       9.13345051
Si      -0.44280516       1.80506591       4.51585096
Si       4.82148572       0.76998677       2.79745070
Si      -2.14734209       4.38498915       3.58375152
Si      -6.05676723      -2.58492043       4.95956188
Si       2.15795140      10.68861888       0.82032645
Si       9.17219838       3.89761721       2.35433707
Si       5.76517404       7.62092460      -3.51335747
Si      -0.40709151      -1.55531709       0.80993655
Si       5.18243379      -1.98225007       5.97722444
Si       4.12543766       3.39463755       2.35525880
Si      -0.15032381       3.31272240       5.14109937
Si      -1.17333620       3.52083957       2.57326516
Si      -0.00341750       0.53841295       6.83388678
22
Lattice="11.841608607150826 1.0300968372247887 -0.7551122975704585 -0.8109315643189564 11.846411910803424 -1.3116279932373907 -7.348317040091215 -5.067820683039906 9.042982399119436" Properties=species:S:1:pos:R:3 unique_starting_index=18 config_type=initial n_minim_iter=9 stress="0.0036744827432702363 -0.001176909714353191 0.004566647902517541 -0.001176909714353191 -0.0045833727941617984 0.0038322003198757214 0.004566647902517541 0.0038322003198757214 -0.004920275703710504" pbc="T T T"
Si       3.92873313      10.23719654       0.45440959
Si       1.37070703       1.45242702       6.56667034
Si      -5.02966256      -3.94824283       7.14948706
Si       2.71412055      -0.00558856       8.32899042
Si      -9.56964143       0.34218553       9.97639272
Si       8.13866063       6.46282045       0.99928955
Si       6.05918575      -0.30572203       1.84649239
Si       0.18119984       2.03909474       7.54501064
Si       1.24955153       0.06948701       9.13552267
Si      -0.45245690       1.79672738       4.52286818
Si       4.83895631       0.75963474       2.79155649
Si      -2.15625330       4.36350243       3.58459534
Si      -6.09225295      -2.56083591       4.95888241
Si       2.17092454      10.62214025       0.83989599
Si       9.23167920       3.85953339       2.34828808
Si       5.79751084       7.56759067      -3.50577744
Si      -0.39664277      -1.54348720       0.80651269
Si       5.21731922      -1.96167318       5.96983712
Si       4.15722894       3.36902452       2.35623205
Si      -0.15519546       3.29925646       5.14932819
Si      -1.18007473       3.49752242       2.57908969
Si      -0.00682491       0.54816869       6.83423741
22
Lattice="11.823089536491349 1.0430802024004115 -0.8206392904234909 -0.789703445766318 11.826092257324794 -1.3539722544380428 -7.385215142969589 -5.096436620420187 9.130369950280926" Properties=species:S:1:pos:R:3 unique_starting_index=18 config_type=initial n_minim_iter=10 stress="-0.005078576555562847 0.0014437633901177428 0.0005962549815673725 0.0014437633901177428 -0.004839811947157234 -0.00035106545943472053 0.0005962549815673725 -0.00035106545943472053 0.000633043156516495" pbc="T T T"
Si       3.91944823      10.22273651       0.40172835
Si       1.32894617       1.43702820       6.58637343
Si      -5.05586311      -3.96211333       7.21847683
Si       2.66386885      -0.03341447       8.34976298
Si      -9.60718042       0.29763614      10.06674242
Si       8.12692486       6.45683894       0.94044657
Si       6.03519719      -0.30806892       1.82640225
Si       0.14159972       2.01856547       7.56570138
Si       1.20686456       0.03204323       9.16463186
Si      -0.47518422       1.77256777       4.53887372
Si       4.80200323       0.74756834       2.76621783
Si      -2.15978709       4.33719416       3.58819422
Si      -6.10902175      -2.58177995       5.01847724
Si       2.17973477      10.60126906       0.80031943
Si       9.21251736       3.84492397       2.28445280
Si       5.80914471       7.57374828      -3.57588081
Si      -0.38797238      -1.54251290       0.81484010
Si       5.17502670      -1.96880880       5.96568898
Si       4.14882997       3.35397820       2.32701675
Si      -0.17781067       3.27736655       5.15575176
Si      -1.18217762       3.47298608       2.58407613
Si      -0.04656152       0.52731286       6.85557436
22
Lattice="11.831162535682555 1.027341712174027 -0.8422410359890331 -0.8089228435841848 11.855877581520344 -1.3900588380773198 -7.397079145409948 -5.125126637756608 9.131907879554793" Properties=species:S:1:pos:R:3 unique_starting_index=18 config_type=initial n_minim_iter=11 stress="-0.002678204661257932 -0.004048504988137101 -0.00023167649260636916 -0.004048504988137101 0.0011632542002111095 -0.0030158977228489925 -0.00023167649260636916 -0.0030158977228489925 -0.008082865586810237" pbc="T T T"
Si       3.89627490      10.23479139       0.35679380
Si       1.30972326       1.41948432       6.56313808
Si      -5.06122164      -3.97750198       7.22196956
Si       2.65092677      -0.06608275       8.32080003
Si      -9.63375021       0.28085909      10.05513860
Si       8.12006156       6.45298506       0.89835933
Si       6.03458992      -0.32787613       1.81458474
Si       0.12095598       2.00381502       7.54075621
Si       1.19004839      -0.00530904       9.13493049
Si      -0.48770223       1.75672412       4.52339573
Si       4.78511435       0.72603625       2.73937920
Si      -2.17331797       4.33085325       3.56132870
Si      -6.11778199      -2.59529849       5.02262274
Si       2.16273966      10.61811552       0.76301136
Si       9.21584506       3.82469479       2.23945185
Si       5.80442596       7.59677316      -3.60829681
Si      -0.37212780      -1.54651192       0.81575691
Si       5.17291461      -1.99878950       5.93887522
Si       4.14865642       3.34192775       2.29591350
Si      -0.19393207       3.26892742       5.12707347
Si      -1.18400796       3.46484553       2.56657692
Si      -0.06208696       0.50826489       6.83274208
22
Lattice="11.806624533503632 1.0831573140092177 -0.8621927878962508 -0.7404519924127476 11.782180019981624 -1.3845886270384475 -7.417774815238125 -5.124126667755546 9.20457445493416" Properties=species:S:1:pos:R:3 unique_starting_index=18 config_type=initial n_minim_iter=12 stress="-0.006506592251430166 0.003289453408787703 0.0007852455239097373 0.003289453408787703 -0.011404589628945121 0.0032084677558638255 0.0007852455239097373 0.0032084677558638255 0.005008890138219384" pbc="T T T"
Si       3.92757860      10.19170890       0.36317558
Si       1.29265660       1.43365295       6.62590255
Si      -5.07214736      -3.95120318       7.28766920
Si       2.62841411      -0.03586627       8.38531645
Si      -9.62048617       0.23463720      10.15479038
Si       8.12885099       6.46081792       0.90060262
Si       6.00788512      -0.29699413       1.83047660
Si       0.11040613       2.01262308       7.61852970
Si       1.16832816       0.01177613       9.20210608
Si      -0.48288727       1.74043869       4.56618777
Si       4.73761875       0.73925013       2.74023458
Si      -2.14378322       4.28351447       3.58691993
Si      -6.12237530      -2.61010886       5.06404226
Si       2.21249271      10.57598989       0.79707004
Si       9.22433947       3.84175274       2.23206193
Si       5.83129215       7.59481278      -3.64686829
Si      -0.34313820      -1.53569574       0.81312690
Si       5.14287279      -1.94528068       5.96384420
Si       4.16744435       3.34012018       2.30208515
Si      -0.18311941       3.25715375       5.17379113
Si      -1.14281204       3.42665488       2.59094695
Si      -0.07554499       0.52395781       6.89320062
22
Lattice="11.79295618938729 1.0929659374960474 -0.8879255877194294 -0.7322215377960285 11.828654734147504 -1.4070626988634045 -7.428338229844865 -5.163747652537224 9.228899389438933" Properties=species:S:1:pos:R:3 unique_starting_index=18 config_type=initial n_minim_iter=13 stress="-0.0043475219761630705 0.0007148635905453252 -0.0004887376088446221 0.0007148635905453252 -0.0063218211665309375 0.0011732094717494873 -0.0004887376088446221 0.0011732094717494873 0.0031156597154195853" pbc="T T T"
Si       3.91550955      10.22147643       0.32813267
Si       1.26905160       1.43334144       6.63515895
Si      -5.07454403      -3.95938382       7.31434899
Si       2.60467524      -0.04732598       8.38355065
Si      -9.62676952       0.20484466      10.18212794
Si       8.10951118       6.48954521       0.87188022
Si       5.98836532      -0.30507799       1.83023814
Si       0.08265034       2.01232646       7.62313610
Si       1.14576539      -0.00373537       9.19378069
Si      -0.48700648       1.73630158       4.57000532
Si       4.69005721       0.72776825       2.71564729
Si      -2.13944316       4.28094547       3.56517653
Si      -6.12482913      -2.63392957       5.07728896
Si       2.20658320      10.62162068       0.78958626
Si       9.22338042       3.83843040       2.18609860
Si       5.83016606       7.64312335      -3.67897016
Si      -0.30577507      -1.54051164       0.80861073
Si       5.12555113      -1.95484665       5.94626828
Si       4.17202515       3.34304171       2.27652594
Si      -0.18815092       3.25286691       5.17049963
Si      -1.12980593       3.42498492       2.58159597
Si      -0.09831555       0.52444774       6.90505264
22
Lattice="11.76255838564458 1.1052778666728174 -0.910788810763074 -0.7191075511052933 11.870354723031616 -1.4108678769458736 -7.428340948420988 -5.188753021598718 9.261941420980184" Properties=species:S:1:pos:R:3 unique_starting_index=18 config_type=initial n_minim_iter=14 stress="-0.003557414960976726 0.00035768890803343576 -0.0019660041316166064 0.00035768890803343576 -0.0027626207964841854 0.0021547436311846768 -0.0019660041316166064 0.0021547436311846768 0.0070094001580547445" pbc="T T T"
Si       3.90341732      10.25038593       0.31305079
Si       1.24850198       1.44414351       6.66438918
Si      -5.06976688      -3.95509594       7.34819865
Si       2.58384087      -0.04711186       8.39653712
Si      -9.62037724       0.19319175      10.23241607
Si       8.08348663       6.51777909       0.85634077
Si       5.95867939      -0.30828030       1.83606557
Si       0.05721993       2.02812093       7.64552877
Si       1.12065068       0.00179160       9.21369651
Si      -0.49310464       1.74331182       4.58653126
Si       4.63676987       0.72302272       2.70048390
Si      -2.13314283       4.27969017       3.55690803
Si      -6.11825222      -2.64980725       5.09348158
Si       2.19969304      10.66754504       0.80443747
Si       9.21390498       3.84714525       2.15431836
Si       5.82469333       7.67944377      -3.70102128
Si      -0.26799974      -1.54435654       0.80233329
Si       5.10087760      -1.95156308       5.93990408
Si       4.17136167       3.35145930       2.26328761
Si      -0.18625989       3.25870040       5.18496864
Si      -1.11615883       3.42699644       2.57993471
Si      -0.12301126       0.53498535       6.93062285
22
Lattice="11.729128518457578 1.1062011621132477 -0.9283000585248643 -0.7184361532652777 11.915682846962962 -1.414392790461605 -7.418515610126134 -5.208237594388216 9.283565426012155" Properties=species:S:1:pos:R:3 unique_starting_index=18 config_type=initial n_minim_iter=15 stress="-0.004600617710972075 -0.001849532738620218 -0.0011729119030546536 -0.001849532738620218 -0.002751557555786787 -0.00033556640122674983 -0.0011729119030546536 -0.00033556640122674983 0.007878971146434962" pbc="T T T"
Si       3.88265473      10.27746642       0.29847768
Si       1.22680838       1.45014035       6.69357226
Si      -5.05724264      -3.94644764       7.37293560
Si       2.56205796      -0.05065565       8.40732384
Si      -9.60568318       0.19416698      10.26495337
Si       8.04863541       6.53922135       0.84369959
Si       5.92571113      -0.31851398       1.84462248
Si       0.03594571       2.04171380       7.65503931
Si       1.10413674       0.00267220       9.22668420
Si      -0.50028193       1.75346220       4.59401122
Si       4.58454531       0.71409097       2.68578035
Si      -2.13221167       4.27857581       3.54885395
Si      -6.10618008      -2.65980621       5.10027772
Si       2.18096896      10.71265782       0.81869255
Si       9.19301874       3.84635872       2.12836738
Si       5.81180930       7.71000460      -3.71604460
Si      -0.22854280      -1.54949479       0.79480318
Si       5.07887019      -1.95388332       5.93062308
Si       4.16627530       3.35691651       2.24963744
Si      -0.18774498       3.26716275       5.19201201
Si      -1.09449145       3.43293715       2.56834313
Si      -0.14596127       0.55048240       6.94657027
22
Lattice="11.694757737225922 1.1008211504112941 -0.9312798020944675 -0.7257019330347599 11.964702778770715 -1.4104377290583132 -7.396077639479272 -5.220426341203572 9.283990925893875" Properties=species:S:1:pos:R:3 unique_starting_index=18 config_type=initial n_minim_iter=16 stress="-0.002115743211738605 -0.004501488340256411 -0.0014942669360500421 -0.004501488340256411 -0.0022533815303168135 -0.000400933333610336 -0.0014942669360500421 -0.000400933333610336 0.0072451787312813026" pbc="T T T"
Si       3.85826442      10.30607677       0.29391779
Si       1.22111940       1.45584812       6.71296095
Si      -5.03450847      -3.93144524       7.38139484
Si       2.54711410      -0.05016122       8.41587807
Si      -9.57792843       0.20797251      10.27118203
Si       8.01095432       6.55893758       0.84284487
Si       5.89177650      -0.33167920       1.85969531
Si       0.01791128       2.06415885       7.66359484
Si       1.10050265       0.00718968       9.23074268
Si      -0.50090896       1.76804477       4.59171751
Si       4.53675697       0.70517940       2.67482778
Si      -2.12292176       4.27378822       3.53409820
Si      -6.08752447      -2.66409972       5.09143109
Si       2.15705498      10.75918724       0.84027280
Si       9.17415313       3.84423376       2.11357345
Si       5.78940925       7.73813699      -3.71412871
Si      -0.18766725      -1.55577596       0.78492403
Si       5.06381800      -1.95573148       5.91976898
Si       4.16078455       3.36297950       2.24041203
Si      -0.18689826       3.28169112       5.19205583
Si      -1.07813184       3.44601016       2.56187925
Si      -0.16550312       0.56954289       6.95318106
22
Lattice="11.666481401411005 1.0899874211246088 -0.9316662365300714 -0.7383001026761746 12.006701694266402 -1.400838750885357 -7.374098392000642 -5.222545479666173 9.281636692106076" Properties=species:S:1:pos:R:3 unique_starting_index=18 config_type=initial n_minim_iter=17 stress="-0.00153891316579568 -0.004517550631021116 -0.0016001795345786868 -0.004517550631021116 0.0008705420193707658 -0.0005409930458662897 -0.0016001795345786868 -0.0005409930458662897 0.007045274172766964" pbc="T T T"
Si       3.83478055      10.33229105       0.29890048
Si       1.21313094       1.46458509       6.72396631
Si      -5.01473789      -3.91824224       7.38334672
Si       2.54355051      -0.04590649       8.42106134
Si      -9.55538086       0.23028652      10.27069621
Si       7.98130582       6.57046147       0.84621879
Si       5.86421462      -0.34326799       1.87131534
Si       0.01312956       2.08089768       7.67091905
Si       1.09032785       0.01907749       9.23670528
Si      -0.49805673       1.78609298       4.59148366
Si       4.50885678       0.70097896       2.67153051
Si      -2.11684091       4.28520312       3.53388085
Si      -6.07105197      -2.66170329       5.08309303
Si       2.13389986      10.79437398       0.85868581
Si       9.15645268       3.83515306       2.10692553
Si       5.76530367       7.75602232      -3.70881343
Si      -0.16372991      -1.56225354       0.77813269
Si       5.05232445      -1.95855936       5.91385559
Si       4.15040389       3.36926836       2.23854041
Si      -0.18963806       3.29521277       5.19165657
Si      -1.07351698       3.45818866       2.56421619
Si      -0.17836653       0.58768062       6.95873208
22
Lattice="11.662372703415707 1.078764325547193 -0.9216711730078764 -0.7534895391810397 12.047175987976644 -1.3842566657490898 -7.360437865353095 -5.21983450729879 9.260096396254895" Properties=species:S:1:pos:R:3 unique_starting_index=18 config_type=initial n_minim_iter=18 stress="0.004529485749105864 -0.00285277515752858 -0.0023254453165731737 -0.00285277515752858 0.0025955269141960174 -8.987532739428429e-05 -0.0023254453165731737 -8.987532739428429e-05 0.002275731918088659" pbc="T T T"
Si       3.81941034      10.35810764       0.31278857
Si       1.21475730       1.47990193       6.71748948
Si      -5.00002130      -3.90051256       7.36876492
Si       2.55240524      -0.03606688       8.42055039
Si      -9.54686869       0.25259518      10.24855027
Si       7.97220395       6.58467206       0.86268998
Si       5.84658701      -0.35315942       1.88677742
Si       0.01780858       2.09845716       7.66829715
Si       1.09414733       0.03776745       9.22564198
Si      -0.49258146       1.80265300       4.59361203
Si       4.49796088       0.70133927       2.67179347
Si      -2.11898091       4.29741843       3.53105364
Si      -6.06439927      -2.65678428       5.06251004
Si       2.11665859      10.82411791       0.88052972
Si       9.16150864       3.83155889       2.10792033
Si       5.75347292       7.76480236      -3.69581928
Si      -0.14201852      -1.57012719       0.76984954
Si       5.05510072      -1.95776988       5.90419128
Si       4.14746261       3.37701331       2.24016449
Si      -0.18332660       3.31532386       5.19119107
Si      -1.07077983       3.47216123       2.56127027
Si      -0.19052529       0.60999465       6.96017711
22
Lattice="11.651510600448995 1.0737452778746603 -0.9254013920397376 -0.7586562940630194 12.06760417111069 -1.3707576904182814 -7.354550810951007 -5.214429132602616 9.265990724754431" Properties=species:S:1:pos:R:3 unique_starting_index=18 config_type=initial n_minim_iter=19 stress="0.0033128127547706224 -0.0013847082191254549 -0.002545016329891941 -0.0013847082191254549 0.0017403368901564018 -0.00027654111493156144 -0.002545016329891941 -0.00027654111493156144 0.0022396541978292107" pbc="T T T"
Si       3.80779044      10.37126044       0.32381502
Si       1.20509928       1.49052148       6.72261416
Si      -4.99379781      -3.88529551       7.37337159
Si       2.55128569      -0.02552264       8.43051047
Si      -9.53883831       0.27105940      10.26094610
Si       7.96298186       6.59403075       0.87382112
Si       5.82769669      -0.35628963       1.89559801
Si       0.01727321       2.11376203       7.67813171
Si       1.08493040       0.04864369       9.23389821
Si      -0.48752203       1.81390927       4.60396337
Si       4.48738998       0.70500920       2.67494931
Si      -2.12196277       4.30116884       3.53477241
Si      -6.06074473      -2.65272022       5.06261328
Si       2.10632057      10.83708510       0.89754606
Si       9.15525225       3.83417758       2.10659713
Si       5.74771371       7.76858862      -3.69404217
Si      -0.12975348      -1.57516558       0.76561612
Si       5.04725861      -1.95268862       5.90370297
Si       4.13980807       3.38264320       2.24385485
Si      -0.18436269       3.32515431       5.20363094
Si      -1.07082633       3.48423886       2.56649516
Si      -0.20129187       0.62615096       6.97461648
22
Lattice="11.65373805266388 1.0725934250722393 -0.914625708037977 -0.7629096152015611 12.09065417390796 -1.3638467468761484 -7.34789872033693 -5.218201793447643 9.246864440062978" Properties=species:S:1:pos:R:3 unique_starting_index=18 config_type=initial n_minim_iter=20 stress="0.004708885354152246 -0.0009369293757401213 -0.002047333088668803 -0.0009369293757401213 0.0038017720450078006 0.0006061033220627739 -0.002047333088668803 0.0006061033220627739 -0.0001899957038958019" pbc="T T T"
Si       3.80313544      10.38701179       0.33144725
Si       1.20645171       1.49326757       6.71329523
Si      -4.98680897      -3.87869121       7.35759309
Si       2.56062494      -0.01900440       8.42264978
Si      -9.53251902       0.27559304      10.24181743
Si       7.96929551       6.60298837       0.88456873
Si       5.82036553      -0.35735794       1.90445808
Si       0.02581347       2.12867085       7.67059791
Si       1.09285523       0.05815078       9.22540331
Si      -0.47717358       1.82161876       4.59885796
Si       4.48823940       0.70925702       2.67818607
Si      -2.12363649       4.30795179       3.52592683
Si      -6.05978844      -2.65504162       5.04964346
Si       2.10396875      10.85054143       0.90504977
Si       9.15882721       3.83661230       2.10811429
Si       5.74600227       7.77836494      -3.68260174
Si      -0.12057297      -1.58096796       0.76191644
Si       5.05209023      -1.95120120       5.89765674
Si       4.13949988       3.38860999       2.24582485
Si      -0.17966792       3.33216059       5.20142974
Si      -1.06605794       3.49672997       2.56319123
Si      -0.20034916       0.63227865       6.97244997
22
Lattice="11.66295419691639 1.0784600342030977 -0.9066446298034285 -0.7598820901807976 12.107348987944727 -1.3636623083718815 -7.349886925873286 -5.228638340776175 9.232780277881114" Properties=species:S:1:pos:R:3 unique_starting_index=18 config_type=initial n_minim_iter=21 stress="0.007849762357186405 0.0010277404149099622 -0.00260367506503496 0.0010277404149099622 0.004470169440342401 0.0015426229843378179 -0.00260367506503496 0.0015426229843378179 0.00023491639030080415" pbc="T T T"
Si       3.80335438      10.39647454       0.33276251
Si       1.21052712       1.48559868       6.70586208
Si      -4.98618425      -3.87150327       7.34322904
Si       2.56753076      -0.01295022       8.40995798
Si      -9.52973674       0.27155043      10.22846289
Si       7.98766378       6.61446976       0.88995989
Si       5.81163956      -0.35341325       1.91306317
Si       0.03476313       2.13667204       7.66220817
Si       1.10212944       0.05894479       9.21538784
Si      -0.46751813       1.82932881       4.58700295
Si       4.49098567       0.71701199       2.68376685
Si      -2.12889494       4.31037109       3.51878491
Si      -6.06709720      -2.66446532       5.04294586
Si       2.10994304      10.85274552       0.90554051
Si       9.17624062       3.84190956       2.10026380
Si       5.75287507       7.78617341      -3.67959408
Si      -0.10960866      -1.58852518       0.75927355
Si       5.05643568      -1.94683433       5.89154838
Si       4.14036455       3.39359101       2.24605590
Si      -0.17298293       3.33688517       5.19484864
Si      -1.06113094       3.50219360       2.56144459
Si      -0.20061130       0.63870828       6.97958993
