20
Lattice="10.180637232635837 -1.4172344550674758e-12 -8.873190984132647e-15 5.09031861631915 8.816690470175637 -5.898964195284617e-15 5.090318616318345 2.9388968233914134 8.711758034864626" Properties=species:S:1:pos:R:3 unique_starting_index=8 config_type=initial n_minim_iter=18 energy=-3322.3166520282234 free_energy=-3322.3166520282234 pbc="T T T"
Si      12.66744016       5.63035297       3.63579378
Si       9.15152568       8.15514849       3.63579378
Si       8.72294586       3.84787948       3.63579378
Si       7.76368487       6.12068022       7.02981403
Si      11.17876748       3.66320822       7.02981403
Si      11.59945936       7.84949251       7.02981403
Si      10.89065393       2.80674292       8.57621285
Si      12.48523684       8.02821150       8.57621285
Si       7.16602094       6.79842652       8.57621285
Si       5.95257625       7.38263079      -0.53595034
Si      10.99144053       1.46376685      -0.53595034
Si      13.59789493       8.78698330      -0.53595034
Si      13.14142228       8.82680768       7.08727211
Si      16.32696088       6.96740169       7.08727211
Si      16.34448440      10.65586204       7.08727211
Si      10.38290892       0.95799735       0.94846843
Si      14.34016997       8.51286422       0.94846843
Si       5.81883281       8.16251938       0.94846843
Si      15.27095585       8.81669047      -0.71310130
Si      15.27095585       8.81669047       5.65159960
