22
Lattice="12.83955890258443 1.0671379958895515 -1.608747840782747 -0.6579615433092129 9.59164527599426 -2.25521749331287 -8.596401185179866 -4.855934571388301 10.104499771867042" Properties=species:S:1:pos:R:3 unique_starting_index=18 config_type=initial n_minim_iter=4 energy=-3752.9487919269927 free_energy=-3752.9487919269927 pbc="T T T"
Si       4.26597366       7.77827281      -0.24761897
Si       0.60953544       0.25612871       6.48492627
Si      -5.88296185      -2.77418044       8.40723222
Si       2.29791576      -0.98877236       8.15229173
Si     -11.22049800      -0.80570391      10.65642036
Si       8.70254330       4.94764792      -0.38244387
Si       5.66452637      -0.11909513       1.81456255
Si      -0.04164593       1.50487996       7.35555454
Si       0.77162443      -1.15360061       8.83881978
Si      -1.16770389       0.64670616       4.45648444
Si       4.61805539       0.94572775       2.90657434
Si      -2.18098001       3.40561732       3.11570699
Si      -7.16940894      -2.06711136       5.97902803
Si       2.55065106       8.45841475      -0.19010481
Si       9.80819842       3.06086391       1.30189346
Si       6.78621138       6.74769841      -4.76964726
Si       1.16087140      -2.08939527       0.55471439
Si       5.30098322      -2.00202419       5.95263871
Si       4.61365598       3.68099218       2.61462667
Si      -0.31033759       2.05336971       4.65641279
Si      -1.53210967       2.16739050       2.22775662
Si      -0.89702342       0.09575312       7.15433187
