20
Lattice="5.807731426474642 -3.354837682413909e-16 -1.305600925448735e-14 2.953137251471011e-16 5.11232722583535 -1.4206912117258829e-14 4.4345588994021924e-14 5.481855112696613e-14 19.72633948138403" Properties=species:S:1:pos:R:3 unique_starting_index=4 config_type=initial n_minim_iter=1 energy=-3297.8860139594226 free_energy=-3297.8860139594226 pbc="T T T"
Si       3.10106052       2.74092325      12.99082493
Si       3.10106052       2.37140398       6.73551455
Si       1.90471319       2.83754396      11.53096924
Si       1.90471319       2.27478327       8.19537024
Si       2.70667091       0.18475964      16.59868429
Si       2.70667091       4.92756759       3.12765519
Si       3.90301823       5.39370757      18.05853998
Si       3.90301823      -0.28138035       1.66779950
Si       3.20822002       4.00091102       4.59991314
Si       3.20822002       1.11141621      15.12642635
Si       3.39953176       3.59082953      16.10409719
Si       3.39953176       1.52149769       3.62224229
Si       2.59951141       1.44474741       5.26325660
Si       2.59951141       3.66757982      14.46308288
Si       2.40819966       1.03466592      13.48541203
Si       2.40819966       4.07766131       6.24092745
Si       4.68378414       3.41901618      19.28806473
Si       4.68378414       1.69331104       0.43827475
Si       1.12394728       4.24947466       9.42489499
Si       1.12394728       0.86285257      10.30144449
20
Lattice="5.808803002044552 -3.3554566783415048e-16 -1.3058418198622404e-14 2.9474610123298153e-16 5.102500797386287 -1.4184021808637389e-14 4.4353158476693954e-14 5.481019623308248e-14 19.729706629916176" Properties=species:S:1:pos:R:3 unique_starting_index=4 config_type=initial n_minim_iter=2 stress="-0.002110846177417221 4.256527867242098e-16 -3.5104014391305257e-16 4.256527867242098e-16 -0.0048301399626500315 1.4675718293390462e-16 -3.5104014391305257e-16 1.4675718293390462e-16 -0.004782116110400521" pbc="T T T"
Si       3.10186892       2.73552360      12.99307781
Si       3.10186892       2.36697720       6.73662882
Si       1.90519150       2.83223053      11.53277746
Si       1.90519150       2.27027027       8.19692917
Si       2.70693409       0.18427320      16.60148214
Si       2.70693409       4.91822759       3.12822449
Si       3.90361151       5.38348093      18.06178249
Si       3.90361151      -0.28098013       1.66792414
Si       3.20860789       3.99307400       4.60061840
Si       3.20860789       1.10942680      15.12908823
Si       3.40018469       3.58391957      16.10706095
Si       3.40018469       1.51858122       3.62264568
Si       2.60019511       1.44182360       5.26423491
Si       2.60019511       3.66067720      14.46547172
Si       2.40861831       1.03266917      13.48749899
Si       2.40861831       4.06983162       6.24220764
Si       4.68465698       3.41210147      19.29147738
Si       4.68465698       1.69039933       0.43822925
Si       1.12414602       4.24164973       9.42662407
Si       1.12414602       0.86085107      10.30308256
20
Lattice="5.816735333273329 -3.3600387916937766e-16 -1.3076250392008786e-14 2.9458120626436523e-16 5.099646216086207 -1.4165616104519553e-14 4.447322811598785e-14 5.5004305446866006e-14 19.783117454303788" Properties=species:S:1:pos:R:3 unique_starting_index=4 config_type=initial n_minim_iter=3 stress="0.003512674569969339 1.0708103981804164e-16 -4.544322573196749e-16 1.0708103981804164e-16 -0.002093645253585238 7.170267507250492e-17 -4.544322573196749e-16 7.170267507250492e-17 0.010542512225348641" pbc="T T T"
Si       3.10729102       2.73350779      13.02833330
Si       3.10729102       2.36613842       6.75478415
Si       1.90843654       2.83136626      11.56322783
Si       1.90843654       2.26827995       8.21988962
Si       2.70944431       0.18368469      16.64634288
Si       2.70944431       4.91596153       3.13677458
Si       3.90829879       5.38118937      18.11144835
Si       3.90829879      -0.28154316       1.67166911
Si       3.21209588       3.99016963       4.61269550
Si       3.21209588       1.10947658      15.17042195
Si       3.40501346       3.58173835      16.15175957
Si       3.40501346       1.51790786       3.63135788
Si       2.60463946       1.44034653       5.27886322
Si       2.60463946       3.65929969      14.50425423
Si       2.41172187       1.03191524      13.52291661
Si       2.41172187       4.06773097       6.26020085
Si       4.69111127       3.40858568      19.34420857
Si       4.69111127       1.69106053       0.43890888
Si       1.12562406       4.24088364       9.45264985
Si       1.12562406       0.85876257      10.33046761
20
Lattice="5.8263055786874824 -3.365567046633219e-16 -1.3097764681069228e-14 2.952448309981902e-16 5.111134563919626 -1.4321668952141593e-14 4.418512038521276e-14 5.417341383348413e-14 19.654957900368213" Properties=species:S:1:pos:R:3 unique_starting_index=4 config_type=initial n_minim_iter=4 stress="0.005274164135610266 -4.518239990797275e-16 -3.459810975320835e-16 -4.518239990797275e-16 -0.00038671135024529493 -1.2329370251965696e-16 -3.459810975320835e-16 -1.2329370251965696e-16 -0.002264833345891809" pbc="T T T"
Si       3.12534390       2.73429643      12.94428314
Si       3.12534390       2.37683813       6.71067476
Si       1.92014123       2.84665225      11.48025496
Si       1.92014123       2.26448232       8.17470294
Si       2.70096168       0.17872915      16.53815371
Si       2.70096168       4.93240541       3.11680419
Si       3.90616435       5.40221953      18.00218189
Si       3.90616435      -0.29108496       1.65277601
Si       3.20647430       3.99192378       4.57933056
Si       3.20647430       1.11921078      15.07562735
Si       3.41230554       3.58781367      16.05842941
Si       3.41230554       1.52332089       3.59652849
Si       2.61983128       1.43635650       5.24814839
Si       2.61983128       3.67477806      14.40680951
Si       2.41400004       1.03224639      13.42400744
Si       2.41400004       4.07888817       6.23095046
Si       4.69917664       3.39803242      19.22439317
Si       4.69917664       1.71310214       0.43056473
Si       1.12712894       4.26866942       9.39691422
Si       1.12712894       0.84246514      10.25804368
20
Lattice="5.758425421454296 -3.326356054827371e-16 -1.2945167410990134e-14 2.953212544084347e-16 5.112457568736591 -1.4338495493179523e-14 4.4300995076872964e-14 5.4266368835479646e-14 19.706502677579245" Properties=species:S:1:pos:R:3 unique_starting_index=4 config_type=initial n_minim_iter=5 stress="-0.0007701129441844433 -6.387832833564814e-16 5.603227842024498e-16 -6.387832833564814e-16 -9.100574812134073e-05 -3.3489237443793963e-16 5.603227842024498e-16 -3.3489237443793963e-16 -0.00023468161609609882" pbc="T T T"
Si       3.09478873       2.73130302      12.97659447
Si       3.09478873       2.38115455       6.72990820
Si       1.90336694       2.85186018      11.50761236
Si       1.90336694       2.26059739       8.19889032
Si       2.66363669       0.17507423      16.58315954
Si       2.66363669       4.93738334       3.12334313
Si       3.85505848       5.40808896      18.05214165
Si       3.85505848      -0.29563139       1.65436102
Si       3.16475769       3.99028820       4.58910991
Si       3.16475769       1.12216937      15.11739277
Si       3.37297973       3.58934449      16.10616191
Si       3.37297973       1.52311307       3.60034077
Si       2.59366773       1.43405941       5.26414143
Si       2.59366773       3.67839816      14.44236125
Si       2.38544569       1.03311571      13.45359211
Si       2.38544569       4.07934186       6.25291057
Si       4.64404583       3.39654294      19.27365883
Si       4.64404583       1.71591463       0.43284385
Si       1.11437960       4.27214341       9.42040749
Si       1.11437960       0.84031416      10.28609519
20
Lattice="5.711390625408555 -3.2991863917400583e-16 -1.2839431334825017e-14 2.9561865739348874e-16 5.117606064211289 -1.435832615472202e-14 4.428611605545967e-14 5.422605365876451e-14 19.699884011907866" Properties=species:S:1:pos:R:3 unique_starting_index=4 config_type=initial n_minim_iter=6 stress="-0.013761240151982273 -1.3381269404461564e-16 -3.869770561203798e-16 -1.3381269404461564e-16 0.001079990362564056 2.5779189040007367e-16 -3.869770561203798e-16 2.5779189040007367e-16 -0.004264518410508287" pbc="T T T"
Si       3.08663246       2.72396831      12.96936898
Si       3.08663246       2.39363775       6.73051503
Si       1.90584871       2.86904372      11.49335761
Si       1.90584871       2.24856235       8.20652640
Si       2.62475817       0.16516528      16.58045704
Si       2.62475817       4.95244079       3.11942698
Si       3.80554191       5.42784675      18.05646840
Si       3.80554191      -0.31024068       1.64341561
Si       3.12190314       3.98788241       4.57907208
Si       3.12190314       1.12972366      15.12081193
Si       3.33876678       3.59480057      16.11615805
Si       3.33876678       1.52280549       3.58372596
Si       2.58948748       1.42907937       5.27086992
Si       2.58948748       3.68852669      14.42901409
Si       2.37262385       1.03599754      13.43366797
Si       2.37262385       4.08160852       6.26621604
Si       4.60394332       3.40244629      19.25780712
Si       4.60394332       1.71515977       0.44207690
Si       1.10744730       4.27396280       9.40786511
Si       1.10744730       0.84364326      10.29201890
20
Lattice="5.773613723031769 -3.3351295814804295e-16 -1.2979311311834294e-14 2.955630944143824e-16 5.116644185007436 -1.4451454695123152e-14 4.4161639429257904e-14 5.3701369258766194e-14 19.644512818477843" Properties=species:S:1:pos:R:3 unique_starting_index=4 config_type=initial n_minim_iter=7 stress="0.0034816709812169246 -4.633510637038443e-16 -1.4183669637903804e-15 -4.633510637038443e-16 0.0037885137859728743 8.289430879557213e-16 -1.4183669637903804e-15 8.289430879557213e-16 0.0008677537374615025" pbc="T T T"
Si       3.13378691       2.71583033      12.92500278
Si       3.13378691       2.40081385       6.71951004
Si       1.94470069       2.88239061      11.45872818
Si       1.94470069       2.23425358       8.18578464
Si       2.63982681       0.15750824      16.54176645
Si       2.63982681       4.95913594       3.10274637
Si       3.82891303       5.44071270      18.00804105
Si       3.82891303      -0.32406851       1.63647177
Si       3.14548170       3.98283930       4.56085858
Si       3.14548170       1.13380489      15.08365423
Si       3.37041997       3.59524417      16.07726512
Si       3.37041997       1.52140001       3.56724769
Si       2.62813203       1.42451721       5.26139783
Si       2.62813203       3.69212698      14.38311499
Si       2.40319376       1.03692208      13.38950410
Si       2.40319376       4.07972211       6.25500871
Si       4.64714098       3.40461933      19.19593187
Si       4.64714098       1.71202486       0.44858095
Si       1.12647274       4.27034695       9.37367546
Si       1.12647274       0.84629723      10.27083736
20
Lattice="5.755266184975674 -3.324531120992131e-16 -1.293806532281257e-14 2.951200113605786e-16 5.108973747210678 -1.4470760671700277e-14 4.4316483446374655e-14 5.3741035891808026e-14 19.713392400812786" Properties=species:S:1:pos:R:3 unique_starting_index=4 config_type=initial n_minim_iter=8 stress="0.001758133539533074 -2.861543647533675e-16 -7.291764836787617e-16 -2.861543647533675e-16 -0.0005577001513239972 3.4648811635799316e-16 -7.291764836787617e-16 3.4648811635799316e-16 0.0038534893460393303" pbc="T T T"
Si       3.13853554       2.71228683      12.96973471
Si       3.13853554       2.39668692       6.74365769
Si       1.95945829       2.89439882      11.49877026
Si       1.95945829       2.21457493       8.21462214
Si       2.61673064       0.15779995      16.60035389
Si       2.61673064       4.95117379       3.11303851
Si       3.79580790       5.44888569      18.07131834
Si       3.79580790      -0.33991195       1.64207406
Si       3.12979374       3.97672205       4.56746703
Si       3.12979374       1.13225169      15.14592537
Si       3.34828280       3.58551646      16.12867909
Si       3.34828280       1.52345728       3.58471331
Si       2.62547245       1.42223518       5.28922917
Si       2.62547245       3.68673857      14.42416323
Si       2.40698338       1.03102959      13.44140951
Si       2.40698338       4.07794416       6.27198289
Si       4.62165658       3.39771136      19.25653158
Si       4.62165658       1.71126238       0.45686082
Si       1.13360961       4.26574926       9.39983538
Si       1.13360961       0.84322449      10.31355702
20
Lattice="5.71528622496684 -3.3014366859141466e-16 -1.2848188796241511e-14 2.947571358221845e-16 5.102691822814505 -1.4405098109562024e-14 4.463962637961209e-14 5.433459206571892e-14 19.857136735856205" Properties=species:S:1:pos:R:3 unique_starting_index=4 config_type=initial n_minim_iter=9 stress="-0.007652824174328965 -7.016771983194606e-16 1.9645044402129817e-15 -7.016771983194606e-16 -0.010640708508279379 6.041900793726176e-16 1.9645044402129817e-15 6.041900793726176e-16 0.00235608609017119" pbc="T T T"
Si       3.15997628       2.69998555      13.07874417
Si       3.15997628       2.40270627       6.77839256
Si       2.00498337       2.94011802      11.58634526
Si       2.00498337       2.16257381       8.27079148
Si       2.55530994       0.14863964      16.70696093
Si       2.55530994       4.95405218       3.15017581
Si       3.71030286       5.49146393      18.19935985
Si       3.71030286      -0.38877211       1.65777689
Si       3.10565336       3.97376245       4.58594685
Si       3.10565336       1.12892937      15.27118989
Si       3.28270456       3.58435560      16.23684218
Si       3.28270456       1.51833622       3.62029455
Si       2.60963286       1.42241654       5.34262152
Si       2.60963286       3.68027529      14.51451522
Si       2.43258167       1.03300969      13.54886292
Si       2.43258167       4.06968213       6.30827381
Si       4.54190639       3.38430497      19.37766475
Si       4.54190639       1.71838685       0.47947198
Si       1.17337984       4.26973276       9.44909639
Si       1.17337984       0.83295906      10.40804035
20
Lattice="5.754645987071857 -3.324172863499564e-16 -1.2936671093469489e-14 2.946470928195429e-16 5.100786812005616 -1.4397679608546805e-14 4.450330635365312e-14 5.4171823624366504e-14 19.796497218574352" Properties=species:S:1:pos:R:3 unique_starting_index=4 config_type=initial n_minim_iter=10 stress="0.013830431308806708 -8.482992093250551e-16 2.757354547067386e-15 -8.482992093250551e-16 0.0018825188578597714 -4.5755496837433556e-17 2.757354547067386e-15 -4.5755496837433556e-17 -0.0006810821941761453" pbc="T T T"
Si       3.21008738       2.70667730      13.05349146
Si       3.21008738       2.39410951       6.74300576
Si       2.06656321       2.97355459      11.56810540
Si       2.06656321       2.12723222       8.22839182
Si       2.54455860       0.15628390      16.64125437
Si       2.54455860       4.94450292       3.15524285
Si       3.68808278       5.52394800      18.12664043
Si       3.68808278      -0.42316119       1.66985679
Si       3.13312628       3.96059511       4.56486390
Si       3.13312628       1.14019171      15.23163331
Si       3.28550503       3.56994884      16.20030445
Si       3.28550503       1.53083797       3.59619277
Si       2.62151971       1.41020170       5.33338471
Si       2.62151971       3.69058511      14.46311251
Si       2.46914096       1.01955543      13.49444138
Si       2.46914096       4.08123138       6.30205584
Si       4.50487697       3.37791900      19.30006561
Si       4.50487697       1.72286781       0.49643161
Si       1.24976901       4.27326122       9.40181700
Si       1.24976901       0.82752560      10.39468022
20
Lattice="5.6563030665554095 -3.2673650479654035e-16 -1.2715592330336156e-14 2.9461379856740274e-16 5.100210438145634 -1.4712184279986614e-14 4.487201312789114e-14 5.3416334126136207e-14 19.960509810642765" Properties=species:S:1:pos:R:3 unique_starting_index=4 config_type=initial n_minim_iter=11 stress="-0.006462001462772524 -8.0129673379828945e-16 5.647252486273315e-16 -8.0129673379828945e-16 0.013806290154744607 2.0632523273722197e-16 5.647252486273315e-16 2.0632523273722197e-16 -0.004175560927713462" pbc="T T T"
Si       3.19022816       2.71942998      13.18162347
Si       3.19022816       2.38078046       6.77888634
Si       2.07908601       3.02127497      11.68215797
Si       2.07908601       2.07893547       8.27835184
Si       2.46607491       0.16932476      16.75914125
Si       2.46607491       4.93088568       3.20136856
Si       3.57721706       5.57138019      18.25860675
Si       3.57721706      -0.47116975       1.70190306
Si       3.06965156       3.95083921       4.62848091
Si       3.06965156       1.14937123      15.33202890
Si       3.20415136       3.56805951      16.36267370
Si       3.20415136       1.53215093       3.59783611
Si       2.58665150       1.40073399       5.35177400
Si       2.58665150       3.69947645      14.60873581
Si       2.45215171       1.01795429      13.57809101
Si       2.45215171       4.08225614       6.38241880
Si       4.31319861       3.36239925      19.44239625
Si       4.31319861       1.73781119       0.51811356
Si       1.34310446       4.28791641       9.46214134
Si       1.34310446       0.81229403      10.49836847
20
Lattice="5.527298563733472 -3.1928455608391194e-16 -1.242558512114728e-14 2.939939226287539e-16 5.08947944812403 -1.444752591598199e-14 4.5526970149451155e-14 5.5173216250113135e-14 20.25185568846589" Properties=species:S:1:pos:R:3 unique_starting_index=4 config_type=initial n_minim_iter=12 stress="-0.016444483859847252 -1.7371277034787108e-15 -2.776987858937809e-17 -1.7371277034787108e-15 0.012371414393018376 4.5873890666242825e-16 -2.776987858937809e-17 4.5873890666242825e-16 0.009178759854956309" pbc="T T T"
Si       3.17785214       2.73868671      13.41220057
Si       3.17785214       2.35079274       6.83965512
Si       2.13512241       3.12432955      11.87422812
Si       2.13512241       1.96514990       8.37762757
Si       2.34944642       0.19394699      16.96558297
Si       2.34944642       4.89553246       3.28627272
Si       3.39217616       5.66906927      18.50355542
Si       3.39217616      -0.57958982       1.74830027
Si       2.97436454       3.94009186       4.70949437
Si       2.97436454       1.14938759      15.54236132
Si       3.07818010       3.57081055      16.65883104
Si       3.07818010       1.51866890       3.59302465
Si       2.55293403       1.39535214       5.41643348
Si       2.55293403       3.69412731      14.83542221
Si       2.44911846       1.02607082      13.71895250
Si       2.44911846       4.06340862       6.53290319
Si       3.99260266       3.32227048      19.68054366
Si       3.99260266       1.76720897       0.57131203
Si       1.53469591       4.31194869       9.55461582
Si       1.53469591       0.77753076      10.69723987
20
Lattice="5.472757223544354 -3.161339740428459e-16 -1.2302974037753748e-14 2.9357706128409074e-16 5.0822629477711825 -1.4376110964850504e-14 4.584855072182838e-14 5.577097650175436e-14 20.394905035317816" Properties=species:S:1:pos:R:3 unique_starting_index=4 config_type=initial n_minim_iter=13 stress="-0.06039102267413771 -2.063624264566829e-15 8.513624384356701e-17 -2.063624264566829e-15 0.0031713470736672933 -3.8360238605377325e-17 8.513624384356701e-17 -3.8360238605377325e-17 0.010533734910982362" pbc="T T T"
Si       3.16738816       2.74847589      13.51910887
Si       3.16738816       2.33378705       6.87579617
Si       2.15910986       3.17002806      11.96012439
Si       2.15910986       1.91223489       8.43478065
Si       2.30536907       0.20734442      17.07324868
Si       2.30536907       4.87491853       3.32165635
Si       3.31364736       5.71115953      18.63223317
Si       3.31364736      -0.62889658       1.76267187
Si       2.93464980       3.93110206       4.75454233
Si       2.93464980       1.15116089      15.64036271
Si       3.02307785       3.57024976      16.79763166
Si       3.02307785       1.51201319       3.59727338
Si       2.53810743       1.38997059       5.44291019
Si       2.53810743       3.69229236      14.95199484
Si       2.44967938       1.02911828      13.79472590
Si       2.44967938       4.05314466       6.60017914
Si       3.84391709       3.30059292      19.79303708
Si       3.84391709       1.78167003       0.60186796
Si       1.62884013       4.32280150       9.59558456
Si       1.62884013       0.75946144      10.79932047
20
Lattice="5.489834304555405 -3.171204321049388e-16 -1.2341363989243282e-14 2.928908180047025e-16 5.070383038704789 -1.3161097915193365e-14 4.6066481287619496e-14 6.05979675776406e-14 20.49184753674275" Properties=species:S:1:pos:R:3 unique_starting_index=4 config_type=initial n_minim_iter=14 stress="-0.03217437795888747 -2.134212917146713e-15 3.299125302839652e-16 -2.134212917146713e-15 -0.02131145573942283 -4.93944261786509e-16 3.299125302839652e-16 -4.93944261786509e-16 0.0003705657205646288" pbc="T T T"
Si       3.17043881       2.76970261      13.58728416
Si       3.17043881       2.30068043       6.90456337
Si       2.19918957       3.20626023      12.00300510
Si       2.19918957       1.86412281       8.48884244
Si       2.31939549       0.23451109      17.15048714
Si       2.31939549       4.83587195       3.34136039
Si       3.29064474       5.74145175      18.73476620
Si       3.29064474      -0.67106871       1.75708133
Si       2.93714342       3.92845862       4.80686828
Si       2.93714342       1.14192442      15.68497926
Si       3.01927219       3.58299853      16.89986380
Si       3.01927219       1.48738451       3.59198374
Si       2.55269088       1.39326710       5.43905549
Si       2.55269088       3.67711594      15.05279205
Si       2.47056212       1.04780701      13.83790751
Si       2.47056212       4.02257603       6.65394003
Si       3.71004723       3.27059720      19.84990253
Si       3.71004723       1.79978584       0.64194501
Si       1.77978707       4.33497735       9.60397876
Si       1.77978707       0.73540568      10.88786878
20
Lattice="5.481873012992172 -3.166605478751797e-16 -1.2323466691883803e-14 2.92527497690766e-16 5.064093414571248 -1.2632752165156125e-14 4.638854998781607e-14 6.293362575793233e-14 20.635114018495933" Properties=species:S:1:pos:R:3 unique_starting_index=4 config_type=initial n_minim_iter=15 stress="-0.03622382620028316 -1.5999128682347396e-15 -8.741729522172945e-16 -1.5999128682347396e-15 -0.020174848480026812 -8.469428669082312e-17 -8.741729522172945e-16 -8.469428669082312e-17 0.000571723009958056" pbc="T T T"
Si       3.09545848       2.81849325      13.67088225
Si       3.09545848       2.24560017       6.96423177
Si       2.17559276       3.19465204      12.04343207
Si       2.17559276       1.86944137       8.59168195
Si       2.38641454       0.28644654      17.28178878
Si       2.38641454       4.77764687       3.35332524
Si       3.30628025       5.72669875      18.90923896
Si       3.30628025      -0.66260533       1.72587506
Si       2.93904033       3.93769792       4.87655239
Si       2.93904033       1.12639550      15.75856163
Si       3.02468230       3.60550204      17.02541471
Si       3.02468230       1.45859138       3.60969930
Si       2.54283268       1.40565121       5.44100462
Si       2.54283268       3.65844221      15.19410940
Si       2.45719072       1.07345533      13.92725631
Si       2.45719072       3.99063809       6.70785770
Si       3.55680231       3.24835079      19.96056735
Si       3.55680231       1.81574262       0.67454667
Si       1.92507070       4.34778933       9.64301034
Si       1.92507070       0.71630408      10.99210368
20
Lattice="5.541519065592167 -3.2010600377139057e-16 -1.2457553370065201e-14 2.9179317360362703e-16 5.051381154003555 -1.2123018706485843e-14 4.642510600185911e-14 6.479070576718606e-14 20.65137530534622" Properties=species:S:1:pos:R:3 unique_starting_index=4 config_type=initial n_minim_iter=16 stress="0.007362745450682956 -1.1590430136061672e-15 -5.306438851025419e-16 -1.1590430136061672e-15 -0.012913145791659385 -6.983066110144199e-16 -5.306438851025419e-16 -6.983066110144199e-16 -0.013073972549379236" pbc="T T T"
Si       3.03171093       2.85352078      13.63302043
Si       3.03171093       2.19786038       7.01835487
Si       2.16235885       3.14410981      11.96670641
Si       2.16235885       1.90727134       8.68466889
Si       2.50980813       0.32783020      17.34404253
Si       2.50980813       4.72355096       3.30733278
Si       3.37916021       5.66980039      19.01035655
Si       3.37916021      -0.61841924       1.64101876
Si       2.99720300       3.93465233       4.87937736
Si       2.99720300       1.11672882      15.77199795
Si       3.07072649       3.60733102      17.00549082
Si       3.07072649       1.44405013       3.64588449
Si       2.54431606       1.40896175       5.44631030
Si       2.54431606       3.64241940      15.20506501
Si       2.47079257       1.08164045      13.97157214
Si       2.47079257       3.96974071       6.67980317
Si       3.52117909       3.23792867      19.95279844
Si       3.52117909       1.81345248       0.69857687
Si       2.02033997       4.33914306       9.62711078
Si       2.02033997       0.71223810      11.02426452
20
Lattice="5.542202672543116 -3.201454923460258e-16 -1.2459090145447078e-14 2.911793991245875e-16 5.040755789475879 -1.2681425933673182e-14 4.679305097744997e-14 6.289892903924202e-14 20.815049024957492" Properties=species:S:1:pos:R:3 unique_starting_index=4 config_type=initial n_minim_iter=17 stress="0.01995190822900187 -1.0779902534897234e-15 -1.3550650120244962e-15 -1.0779902534897234e-15 -0.014597531525651238 -1.2661910756951687e-15 -1.3550650120244962e-15 -1.2661910756951687e-15 0.00652115930393941" pbc="T T T"
Si       3.01285898       2.87355009      13.73063451
Si       3.01285898       2.16720570       7.08441451
Si       2.20507479       3.16063517      12.04155292
Si       2.20507479       1.88012062       8.77349611
Si       2.52934369       0.35317219      17.49193902
Si       2.52934369       4.68758360       3.32311000
Si       3.33712788       5.68101306      19.18102062
Si       3.33712788      -0.64025727       1.63402840
Si       3.01012988       3.92051434       4.90984969
Si       3.01012988       1.12024145      15.90519933
Si       3.04342408       3.59524182      17.12825993
Si       3.04342408       1.44551397       3.68678909
Si       2.53207279       1.40013645       5.49767482
Si       2.53207279       3.64061934      15.31737421
Si       2.49877859       1.07486393      14.09431361
Si       2.49877859       3.96589186       6.72073542
Si       3.41205300       3.21338653      20.07936122
Si       3.41205300       1.82736926       0.73568781
Si       2.13014967       4.34774715       9.67183670
Si       2.13014967       0.69300864      11.14321232
20
Lattice="5.520982637588952 -3.1891971643355937e-16 -1.2411386670132223e-14 2.9147460993505154e-16 5.045866335092846 -1.1936600546433183e-14 4.7014843168251194e-14 6.608556427640157e-14 20.91370930097046" Properties=species:S:1:pos:R:3 unique_starting_index=4 config_type=initial n_minim_iter=18 stress="0.029881224969942652 -8.663478349368402e-16 -1.3767810854623013e-15 -8.663478349368402e-16 0.012719715895769725 -9.329716532073948e-16 -1.3767810854623013e-15 -9.329716532073948e-16 0.004701485502081385" pbc="T T T"
Si       2.96685593       2.88724861      13.78205669
Si       2.96685593       2.15861773       7.13165261
Si       2.21612996       3.15001837      12.08617090
Si       2.21612996       1.89584797       8.82753840
Si       2.55412671       0.36431544      17.58850726
Si       2.55412671       4.68155090       3.32520204
Si       3.30485267       5.67295154      19.28439305
Si       3.30485267      -0.62708520       1.62931625
Si       3.00565024       3.91702727       4.91576114
Si       3.00565024       1.12883907      15.99794816
Si       3.01482351       3.58717687      17.18310857
Si       3.01482351       1.45868946       3.73060073
Si       2.51533239       1.39409410       5.54109351
Si       2.51533239       3.65177223      15.37261579
Si       2.50615913       1.06424371      14.18745538
Si       2.50615913       3.98162263       6.72625392
Si       3.36287896       3.21198998      20.17766343
Si       3.36287896       1.83387635       0.73604587
Si       2.15810368       4.35680952       9.72080878
Si       2.15810368       0.68905682      11.19290052
20
Lattice="5.4818220710611385 -3.1665760521310223e-16 -1.232335217241691e-14 2.915071208881104e-16 5.046429148861052 -1.1850586859172205e-14 4.7246268393217144e-14 6.666308598893225e-14 21.016654659366296" Properties=species:S:1:pos:R:3 unique_starting_index=4 config_type=initial n_minim_iter=19 stress="0.009308321704452316 -8.704575098267018e-16 -1.5104766287831103e-15 -8.704575098267018e-16 0.015558701762372108 -1.1793557091484815e-15 -1.5104766287831103e-15 -1.1793557091484815e-15 0.02017843254831386" pbc="T T T"
Si       2.93597014       2.88885060      13.84701755
Si       2.93597014       2.15757855       7.16963711
Si       2.22859374       3.15264761      12.13258355
Si       2.22859374       1.89378154       8.88407111
Si       2.54585193       0.36563602      17.67796444
Si       2.54585193       4.68079313       3.33869022
Si       3.25322833       5.67586218      19.39239844
Si       3.25322833      -0.62943303       1.62425622
Si       2.97600148       3.91270563       4.93347791
Si       2.97600148       1.13372352      16.08317675
Si       2.97844836       3.58048364      17.26115985
Si       2.97844836       1.46594551       3.75549481
Si       2.50582059       1.38949106       5.57484942
Si       2.50582059       3.65693809      15.44180524
Si       2.50337371       1.05726907      14.26382214
Si       2.50337371       3.98916008       6.75283252
Si       3.30157796       3.20824822      20.28012729
Si       3.30157796       1.83818093       0.73652737
Si       2.18024411       4.36139551       9.77179996
Si       2.18024411       0.68503364      11.24485470
20
Lattice="5.453907353378468 -3.1504511076563113e-16 -1.2260598786346319e-14 2.91654697747971e-16 5.048983927505923 -1.0738645389514929e-14 4.731838227692606e-14 7.105936558462331e-14 21.048733226449254" Properties=species:S:1:pos:R:3 unique_starting_index=4 config_type=initial n_minim_iter=20 stress="-0.02538160198755361 -7.343864075038148e-16 -2.8059058129685726e-15 -7.343864075038148e-16 0.012519751527300003 -3.0723938383832003e-16 -2.8059058129685726e-15 -3.0723938383832003e-16 0.012446792516856273" pbc="T T T"
Si       2.91493443       2.88621036      13.86634801
Si       2.91493443       2.16277357       7.18238522
Si       2.25240615       3.15588962      12.14353513
Si       2.25240615       1.89309431       8.90519810
Si       2.53897292       0.36171840      17.70675183
Si       2.53897292       4.68726553       3.34198139
Si       3.20150120       5.68038158      19.42956471
Si       3.20150120      -0.63139765       1.61916852
Si       2.94691948       3.91501150       4.93685341
Si       2.94691948       1.13397243      16.11187981
Si       2.94777700       3.57668186      17.28702190
Si       2.94777700       1.47230207       3.76171132
Si       2.50698788       1.39051954       5.58751320
Si       2.50698788       3.65846439      15.46122003
Si       2.50613036       1.05218990      14.28607794
Si       2.50613036       3.99679403       6.76265529
Si       3.24783800       3.20687964      20.31819967
Si       3.24783800       1.84210428       0.73053355
Si       2.20606935       4.36659625       9.79383306
Si       2.20606935       0.68238768      11.25490017
20
Lattice="5.44785939786192 -3.146957504461063e-16 -1.2247002743866248e-14 2.916850714207594e-16 5.049509741720082 -9.703469604351105e-15 4.744870401383219e-14 7.51764576721359e-14 21.106704512487347" Properties=species:S:1:pos:R:3 unique_starting_index=4 config_type=initial n_minim_iter=21 stress="-0.009674339191852975 -6.242826326251842e-16 -2.0001232536980995e-15 -6.242826326251842e-16 -0.0032974310724999396 -9.2393542810824e-16 -2.0001232536980995e-15 -9.2393542810824e-16 0.008502695446057832" pbc="T T T"
Si       2.90399031       2.87382821      13.90822978
Si       2.90399031       2.17568153       7.19847473
Si       2.32056939       3.15958121      12.15938998
Si       2.32056939       1.88992853       8.94731453
Si       2.54386908       0.34907334      17.75182699
Si       2.54386908       4.70043641       3.35487753
Si       3.12729001       5.68433608      19.50066679
Si       3.12729001      -0.63482634       1.60603772
Si       2.91780484       3.92174183       4.94908168
Si       2.91780484       1.12776792      16.15762283
Si       2.91834814       3.56834899      17.33355650
Si       2.91834814       1.48116075       3.77314802
Si       2.53005456       1.39698695       5.60427057
Si       2.53005456       3.65252279      15.50243394
Si       2.52951126       1.04359412      14.32650027
Si       2.52951126       4.00591562       6.78020424
Si       3.16981809       3.20507715      20.38493362
Si       3.16981809       1.84443259       0.72177090
Si       2.27804131       4.36918746       9.83158136
Si       2.27804131       0.68032228      11.27512315
