22
Lattice="12.835954218576832 1.066237629490132 -1.603857913613103 -0.6599458182660185 9.604973511159248 -2.2514582289608827 -8.5905301903079 -4.858278484917099 10.097103722804688" Properties=species:S:1:pos:R:3 unique_starting_index=18 config_type=initial n_minim_iter=1 energy=-3752.9469626918176 free_energy=-3752.9469626918176 pbc="T T T"
Si       4.25585113       7.78534111      -0.25132210
Si       0.61486221       0.26265314       6.48791317
Si      -5.87942522      -2.79227396       8.38606752
Si       2.30347197      -0.98201880       8.15448295
Si     -11.21006700      -0.79800980      10.65464444
Si       8.70352165       4.95767543      -0.37152348
Si       5.65895700      -0.12581899       1.80972894
Si      -0.03600063       1.51094335       7.35917336
Si       0.77759295      -1.14630300       8.84224510
Si      -1.16295435       0.65467622       4.46000480
Si       4.61573323       0.94119607       2.90256224
Si      -2.17525414       3.41585664       3.12125742
Si      -7.17165714      -2.07753270       5.96573552
Si       2.54252245       8.47005492      -0.18986995
Si       9.80855350       3.07115990       1.31275771
Si       6.78640789       6.75828276      -4.75818298
Si       1.15230911      -2.08310346       0.54907572
Si       5.29553855      -2.01544230       5.94363333
Si       4.60889435       3.67782440       2.60545876
Si      -0.30442651       2.06069045       4.66003550
Si      -1.52842126       2.17690887       2.23273647
Si      -0.89166542       0.10202072       7.15750916
22
Lattice="12.836115510027012 1.066227343861488 -1.6037195291970645 -0.659979208926751 9.60481812349028 -2.251506536002685 -8.590548957485527 -4.858264070411282 10.096924655494306" Properties=species:S:1:pos:R:3 unique_starting_index=18 config_type=initial n_minim_iter=2 stress="-2.2239108563105088e-05 -6.0396426924285496e-06 2.8325711413679682e-05 -6.0396426924285496e-06 -1.6173912288940042e-05 -2.1802902652668115e-05 2.8325711413679682e-05 -2.1802902652668115e-05 1.7336249789773584e-05" pbc="T T T"
Si       4.25588879       7.78525060      -0.25128268
Si       0.61492273       0.26249956       6.48777867
Si      -5.87942864      -2.79226903       8.38598940
Si       2.30359387      -0.98212014       8.15448883
Si     -11.21016655      -0.79802210      10.65427419
Si       8.70363110       4.95760302      -0.37151480
Si       5.65913045      -0.12579164       1.80976174
Si      -0.03600398       1.51092371       7.35914655
Si       0.77765371      -1.14634196       8.84202646
Si      -1.16291696       0.65463233       4.45998333
Si       4.61582156       0.94117293       2.90253384
Si      -2.17522274       3.41574434       3.12110556
Si      -7.17167664      -2.07755792       5.96559742
Si       2.54249911       8.46987691      -0.18991479
Si       9.80868633       3.07097288       1.31278555
Si       6.78647123       6.75812554      -4.75797531
Si       1.15235087      -2.08306460       0.54911312
Si       5.29569984      -2.01539830       5.94362602
Si       4.60898337       3.67773561       2.60546924
Si      -0.30438173       2.06063468       4.65994401
Si      -1.52842856       2.17686580       2.23268669
Si      -0.89155064       0.10205192       7.15738216
22
Lattice="12.836363098242154 1.0662584624392824 -1.6038543530635363 -0.6599283925014033 9.604826069130452 -2.2513683064025387 -8.590847245670574 -4.858207600944344 10.096844114507762" Properties=species:S:1:pos:R:3 unique_starting_index=18 config_type=initial n_minim_iter=3 stress="0.00014383901276930532 6.964704594177157e-05 -0.00026457691958375445 6.964704594177157e-05 0.00018018834978861178 0.00024549430512415816 -0.00026457691958375445 0.00024549430512415816 -0.00022033573509319668" pbc="T T T"
Si       4.25598003       7.78532198      -0.25122195
Si       0.61483621       0.26258285       6.48767889
Si      -5.87965460      -2.79220290       8.38596271
Si       2.30354050      -0.98207660       8.15437105
Si     -11.21053554      -0.79792757      10.65419996
Si       8.70380609       4.95765081      -0.37159350
Si       5.65925490      -0.12572908       1.80966023
Si      -0.03608377       1.51101075       7.35905940
Si       0.77752635      -1.14625600       8.84182618
Si      -1.16298505       0.65465386       4.45994707
Si       4.61586373       0.94123201       2.90242244
Si      -2.17531373       3.41577205       3.12111488
Si      -7.17187204      -2.07754101       5.96558177
Si       2.54254164       8.46989515      -0.18986587
Si       9.80886321       3.07098355       1.31265481
Si       6.78668739       6.75812102      -4.75787649
Si       1.15236947      -2.08305896       0.54908071
Si       5.29572737      -2.01529185       5.94345517
Si       4.60904231       3.67778919       2.60542668
Si      -0.30446502       2.06069988       4.65991035
Si      -1.52846680       2.17685225       2.23266681
Si      -0.89166880       0.10213329       7.15729415
22
Lattice="12.836527759391883 1.066204294797656 -1.6036608749173837 -0.6600242002308856 9.604632420250502 -2.251600063333373 -8.590778229644155 -4.8582585635461 10.096862410699517" Properties=species:S:1:pos:R:3 unique_starting_index=18 config_type=initial n_minim_iter=4 stress="0.00012692237416434663 -5.2126115465717854e-05 4.5357410704403666e-05 -5.2126115465717854e-05 0.00020107793387854825 -2.761822102919843e-06 4.5357410704403666e-05 -2.761822102919843e-06 0.00021259311232014588" pbc="T T T"
Si       4.25597135       7.78519420      -0.25122664
Si       0.61491989       0.26248504       6.48772975
Si      -5.87959511      -2.79225493       8.38608849
Si       2.30376745      -0.98234905       8.15458533
Si     -11.21060038      -0.79801952      10.65393529
Si       8.70392148       4.95749905      -0.37160105
Si       5.65950538      -0.12572583       1.80977477
Si      -0.03592158       1.51082625       7.35907047
Si       0.77765039      -1.14642103       8.84179474
Si      -1.16290764       0.65449777       4.45995590
Si       4.61597357       0.94115129       2.90245318
Si      -2.17537584       3.41559648       3.12099830
Si      -7.17182921      -2.07761235       5.96552922
Si       2.54245249       8.46962546      -0.19001954
Si       9.80906951       3.07071861       1.31273211
Si       6.78671447       6.75801260      -4.75781389
Si       1.15244024      -2.08301470       0.54917972
Si       5.29597705      -2.01530147       5.94364171
Si       4.60914353       3.67761474       2.60549313
Si      -0.30446954       2.06057710       4.65991469
Si      -1.52844286       2.17665671       2.23253205
Si      -0.89158141       0.10200739       7.15732830
22
Lattice="12.836448975022169 1.0662271624953406 -1.6036504088301609 -0.6599911345450948 9.604473455541605 -2.2515957846582224 -8.590743006190364 -4.858228111775802 10.09674595177508" Properties=species:S:1:pos:R:3 unique_starting_index=18 config_type=initial n_minim_iter=5 stress="-9.753662593675801e-05 -5.390276079018554e-06 1.5986202157754162e-05 -5.390276079018554e-06 -4.690999111948322e-05 9.926483224999079e-06 1.5986202157754162e-05 9.926483224999079e-06 -9.324967599234419e-05" pbc="T T T"
Si       4.25596100       7.78508836      -0.25123370
Si       0.61490816       0.26247082       6.48764089
Si      -5.87957243      -2.79224271       8.38600542
Si       2.30375024      -0.98236445       8.15449069
Si     -11.21054726      -0.79806206      10.65378308
Si       8.70388172       4.95744073      -0.37162118
Si       5.65948733      -0.12570254       1.80974743
Si      -0.03591580       1.51078590       7.35896730
Si       0.77763163      -1.14642393       8.84166394
Si      -1.16290022       0.65446752       4.45989725
Si       4.61594320       0.94114456       2.90240102
Si      -2.17536428       3.41551290       3.12094192
Si      -7.17178645      -2.07761835       5.96545826
Si       2.54244803       8.46948237      -0.19004422
Si       9.80902466       3.07067606       1.31269316
Si       6.78669681       6.75792920      -4.75776253
Si       1.15243164      -2.08297638       0.54918207
Si       5.29594181      -2.01525404       5.94356646
Si       4.60912295       3.67755791       2.60545263
Si      -0.30447636       2.06053285       4.65984887
Si      -1.52842962       2.17659735       2.23248832
Si      -0.89158465       0.10198511       7.15723450
22
Lattice="12.836872065570514 1.06637076185716 -1.603803463838776 -0.6598745602613335 9.60420245555853 -2.2517437132215767 -8.591165262630927 -4.858328607124751 10.096964433630989" Properties=species:S:1:pos:R:3 unique_starting_index=18 config_type=initial n_minim_iter=6 stress="0.00020012543212160046 7.067375727541149e-05 -5.1263790316828284e-05 7.067375727541149e-05 -0.00011667021755651038 -0.00010226945152463 -5.1263790316828284e-05 -0.00010226945152463 -2.292037069306568e-06" pbc="T T T"
Si       4.25616316       7.78496348      -0.25133424
Si       0.61486787       0.26237845       6.48764705
Si      -5.87987946      -2.79232884       8.38623371
Si       2.30374983      -0.98249326       8.15456983
Si     -11.21102386      -0.79832597      10.65392822
Si       8.70421496       4.95739554      -0.37178654
Si       5.65972695      -0.12561624       1.80970474
Si      -0.03595344       1.51069807       7.35899780
Si       0.77754972      -1.14652733       8.84169058
Si      -1.16298419       0.65436320       4.45992719
Si       4.61605963       0.94114517       2.90232504
Si      -2.17546347       3.41526850       3.12089332
Si      -7.17206201      -2.07774453       5.96559212
Si       2.54258099       8.46922541      -0.19020486
Si       9.80940263       3.07062242       1.31252624
Si       6.78701960       6.75787684      -4.75795725
Si       1.15245872      -2.08290300       0.54922456
Si       5.29605874      -2.01515316       5.94359231
Si       4.60928416       3.67746092       2.60540174
Si      -0.30454804       2.06042631       4.65984451
Si      -1.52849464       2.17644427       2.23245712
Si      -0.89171537       0.10185235       7.15730072
22
Lattice="12.836606668125446 1.0662700233317486 -1.603759372251404 -0.6599313873117041 9.604185079929998 -2.2516540810076604 -8.590929547212314 -4.858159886599733 10.096958828763153" Properties=species:S:1:pos:R:3 unique_starting_index=18 config_type=initial n_minim_iter=7 stress="-7.92812777375234e-05 -4.58015009414453e-05 1.7266271405154173e-05 -4.58015009414453e-05 6.776003613408928e-05 4.6428409357929326e-05 1.7266271405154173e-05 4.6428409357929326e-05 1.60399897890201e-05" pbc="T T T"
Si       4.25600204       7.78500243      -0.25117199
Si       0.61486304       0.26244238       6.48768330
Si      -5.87972775      -2.79217337       8.38633095
Si       2.30375652      -0.98248762       8.15466247
Si     -11.21077741      -0.79813782      10.65393945
Si       8.70401957       4.95733819      -0.37170073
Si       5.65971295      -0.12558859       1.80973821
Si      -0.03592795       1.51085508       7.35907907
Si       0.77758091      -1.14646029       8.84171884
Si      -1.16296414       0.65441444       4.45995941
Si       4.61596330       0.94116708       2.90233800
Si      -2.17547500       3.41526209       3.12091153
Si      -7.17185442      -2.07764862       5.96558711
Si       2.54242717       8.46918004      -0.19011145
Si       9.80924388       3.07050515       1.31256667
Si       6.78680579       6.75779871      -4.75790892
Si       1.15247460      -2.08290244       0.54923057
Si       5.29602865      -2.01505220       5.94364969
Si       4.60918072       3.67746283       2.60551602
Si      -0.30458768       2.06051594       4.65989639
Si      -1.52849241       2.17643751       2.23246061
Si      -0.89168345       0.10193325       7.15736508
22
Lattice="12.83717512249159 1.066749578652294 -1.603948478868668 -0.6595151144827891 9.60316710271673 -2.2519027809395986 -8.591583269672828 -4.858227252151366 10.097370079380354" Properties=species:S:1:pos:R:3 unique_starting_index=18 config_type=initial n_minim_iter=8 stress="-2.2947998636021833e-06 0.00011010221507603738 5.3459330065822314e-05 0.00011010221507603738 8.611079033235208e-05 -1.5271294806247316e-05 5.3459330065822314e-05 -1.5271294806247316e-05 -3.742636784125712e-05" pbc="T T T"
Si       4.25636419       7.78473806      -0.25104638
Si       0.61464471       0.26230503       6.48778990
Si      -5.88023413      -2.79217024       8.38711546
Si       2.30379874      -0.98283595       8.15495306
Si     -11.21138277      -0.79886645      10.65424667
Si       8.70464842       4.95715163      -0.37187304
Si       5.66042343      -0.12512159       1.80973259
Si      -0.03595260       1.51078478       7.35914715
Si       0.77752723      -1.14667160       8.84185077
Si      -1.16313430       0.65418196       4.46001214
Si       4.61609780       0.94130339       2.90211836
Si      -2.17563949       3.41453413       3.12072596
Si      -7.17209455      -2.07795780       5.96582111
Si       2.54263991       8.46821360      -0.19038145
Si       9.80982100       3.07004802       1.31222094
Si       6.78720368       6.75757110      -4.75838759
Si       1.15255471      -2.08263101       0.54939717
Si       5.29632356      -2.01433536       5.94386598
Si       4.60950966       3.67721829       2.60565626
Si      -0.30477973       2.06038356       4.65986908
Si      -1.52845585       2.17583941       2.23222686
Si      -0.89167544       0.10182250       7.15756308
22
Lattice="12.837255611225542 1.0664532271670013 -1.6041459697455263 -0.6596814314478867 9.602849396211264 -2.2519144176756076 -8.591679235190536 -4.857880563652841 10.097609260201455" Properties=species:S:1:pos:R:3 unique_starting_index=18 config_type=initial n_minim_iter=9 stress="3.664832563053828e-05 -0.00011976539795825182 -6.420108432301098e-05 -0.00011976539795825182 -9.897757805230143e-05 1.564432505844985e-05 -6.420108432301098e-05 1.564432505844985e-05 4.386749810001438e-05" pbc="T T T"
Si       4.25621901       7.78444086      -0.25105725
Si       0.61455468       0.26228598       6.48785363
Si      -5.88034099      -2.79192824       8.38736696
Si       2.30372042      -0.98288793       8.15501666
Si     -11.21158725      -0.79861970      10.65452515
Si       8.70462289       4.95679526      -0.37199661
Si       5.66050507      -0.12519765       1.80967891
Si      -0.03610241       1.51076371       7.35922174
Si       0.77743600      -1.14666974       8.84194316
Si      -1.16321607       0.65418120       4.46007632
Si       4.61605679       0.94119241       2.90205882
Si      -2.17579608       3.41443507       3.12076411
Si      -7.17214976      -2.07774813       5.96599301
Si       2.54245606       8.46785184      -0.19042012
Si       9.80980562       3.06967434       1.31206352
Si       6.78714481       6.75722253      -4.75854798
Si       1.15261362      -2.08258454       0.54940314
Si       5.29634796      -2.01431138       5.94388040
Si       4.60943025       3.67700437       2.60565757
Si      -0.30492749       2.06033496       4.65992328
Si      -1.52853132       2.17575814       2.23225463
Si      -0.89178088       0.10187218       7.15767513
22
Lattice="12.837176403283385 1.0668482240918225 -1.6040851259070144 -0.6593816463433613 9.602530780930095 -2.2520396858255203 -8.591701413981193 -4.858106290691135 10.097670896390827" Properties=species:S:1:pos:R:3 unique_starting_index=18 config_type=initial n_minim_iter=10 stress="6.030443014545925e-07 8.707021299733177e-06 -1.8441730632221438e-06 8.707021299733177e-06 6.50422457280379e-06 -1.3210625871430204e-05 -1.8441730632221438e-06 -1.3210625871430204e-05 -7.100776886585686e-06" pbc="T T T"
Si       4.25637587       7.78452357      -0.25095886
Si       0.61467562       0.26221966       6.48787817
Si      -5.88036558      -2.79202713       8.38767125
Si       2.30368424      -0.98299947       8.15502343
Si     -11.21144769      -0.79909650      10.65450370
Si       8.70478935       4.95685225      -0.37203058
Si       5.66070897      -0.12491628       1.80974690
Si      -0.03607543       1.51071781       7.35916018
Si       0.77742995      -1.14683839       8.84202023
Si      -1.16313954       0.65402143       4.46007616
Si       4.61602620       0.94131632       2.90197842
Si      -2.17574582       3.41412574       3.12059256
Si      -7.17199800      -2.07800210       5.96602080
Si       2.54260899       8.46759007      -0.19051851
Si       9.80982863       3.06959278       1.31191520
Si       6.78717949       6.75735798      -4.75863717
Si       1.15260055      -2.08250256       0.54949598
Si       5.29640091      -2.01392347       5.94404839
Si       4.60953887       3.67702063       2.60578217
Si      -0.30498066       2.06023950       4.65992537
Si      -1.52840591       2.17546892       2.23221298
Si      -0.89177429       0.10188061       7.15776498
22
Lattice="12.837057503328607 1.0670871663205435 -1.6039268965387687 -0.6591719102374876 9.60202006556535 -2.2519584039236418 -8.591598277127435 -4.857936140723142 10.097700235726203" Properties=species:S:1:pos:R:3 unique_starting_index=18 config_type=initial n_minim_iter=11 stress="1.0109708536757289e-05 8.315061681796737e-06 2.0570918261578532e-05 8.315061681796737e-06 -3.2410808224639534e-05 1.2527543066629993e-05 2.0570918261578532e-05 1.2527543066629993e-05 -2.257312640766548e-06" pbc="T T T"
Si       4.25648774       7.78450906      -0.25061841
Si       0.61477843       0.26230238       6.48812673
Si      -5.88030247      -2.79177193       8.38807202
Si       2.30359529      -0.98286061       8.15501634
Si     -11.21116425      -0.79925718      10.65442993
Si       8.70481937       4.95678951      -0.37188506
Si       5.66094685      -0.12462181       1.80990497
Si      -0.03596759       1.51090496       7.35920260
Si       0.77753631      -1.14681667       8.84214518
Si      -1.16304053       0.65395219       4.46027906
Si       4.61597310       0.94146104       2.90196535
Si      -2.17583140       3.41375715       3.12050577
Si      -7.17170984      -2.07798965       5.96606895
Si       2.54271321       8.46720642      -0.19037418
Si       9.80984053       3.06947229       1.31188436
Si       6.78702215       6.75713942      -4.75856072
Si       1.15260980      -2.08242662       0.54955999
Si       5.29653566      -2.01332549       5.94434754
Si       4.60963845       3.67704649       2.60612286
Si      -0.30490835       2.06023232       4.66007671
Si      -1.52820241       2.17513204       2.23226493
Si      -0.89168180       0.10207342       7.15788027
22
Lattice="12.836904128322416 1.0671896157677085 -1.604065322825606 -0.6590714573445496 9.602045537601816 -2.252008493425377 -8.591608105267934 -4.8580428034224195 10.097910964215007" Properties=species:S:1:pos:R:3 unique_starting_index=18 config_type=initial n_minim_iter=12 stress="-2.022665041223721e-05 5.07811844131403e-06 -8.602940688572691e-06 5.07811844131403e-06 -3.390168319656938e-06 -2.005544321444414e-05 -8.602940688572691e-06 -2.005544321444414e-05 -2.8700835321643755e-06" pbc="T T T"
Si       4.25649176       7.78469385      -0.25060241
Si       0.61471773       0.26227200       6.48822957
Si      -5.88033695      -2.79175888       8.38841734
Si       2.30342800      -0.98292687       8.15495006
Si     -11.21114509      -0.79945167      10.65458497
Si       8.70474555       4.95684244      -0.37206454
Si       5.66098093      -0.12452814       1.80990454
Si      -0.03602127       1.51099949       7.35923601
Si       0.77743162      -1.14687350       8.84223704
Si      -1.16305887       0.65393008       4.46044707
Si       4.61584545       0.94150201       2.90187367
Si      -2.17591986       3.41364746       3.12046676
Si      -7.17156819      -2.07804915       5.96624610
Si       2.54271920       8.46724595      -0.19042421
Si       9.80968634       3.06939915       1.31170254
Si       6.78696622       6.75718773      -4.75875505
Si       1.15260456      -2.08247200       0.54959423
Si       5.29647443      -2.01315550       5.94445592
Si       4.60958952       3.67712118       2.60619526
Si      -0.30499767       2.06020884       4.66016325
Si      -1.52809703       2.17500999       2.23226197
Si      -0.89175403       0.10207415       7.15796217
22
Lattice="12.83709986309517 1.0671992367572622 -1.6040030495225985 -0.6590543884986846 9.602062989984049 -2.2517499455557104 -8.591716137654421 -4.857807905249766 10.097888010451404" Properties=species:S:1:pos:R:3 unique_starting_index=18 config_type=initial n_minim_iter=13 stress="1.720453911098983e-05 -6.549850078017225e-06 6.324509327263802e-06 -6.549850078017225e-06 -1.306156857101405e-05 1.931928809116042e-06 6.324509327263802e-06 1.931928809116042e-06 -1.3159126557919154e-05" pbc="T T T"
Si       4.25664094       7.78494468      -0.25025937
Si       0.61470501       0.26251813       6.48838547
Si      -5.88041395      -2.79139583       8.38870565
Si       2.30349271      -0.98278755       8.15484050
Si     -11.21133396      -0.79929471      10.65459384
Si       8.70484317       4.95689442      -0.37207462
Si       5.66121697      -0.12439100       1.81001124
Si      -0.03596915       1.51128975       7.35934733
Si       0.77742837      -1.14662222       8.84235494
Si      -1.16305612       0.65398918       4.46063736
Si       4.61586016       0.94162650       2.90186489
Si      -2.17602520       3.41355672       3.12046402
Si      -7.17148158      -2.07785080       5.96632017
Si       2.54279120       8.46737100      -0.19013681
Si       9.80987433       3.06927931       1.31174296
Si       6.78695352       6.75711953      -4.75866050
Si       1.15265214      -2.08256701       0.54957919
Si       5.29667681      -2.01275586       5.94464832
Si       4.60970334       3.67733415       2.60651498
Si      -0.30504473       2.06036581       4.66035740
Si      -1.52809186       2.17504703       2.23233200
Si      -0.89172008       0.10236881       7.15810033
22
Lattice="12.836978817519949 1.067366089838298 -1.6040772321099768 -0.658900573463821 9.602240040159735 -2.251554405563279 -8.591732939529047 -4.857782162953848 10.098094750495015" Properties=species:S:1:pos:R:3 unique_starting_index=18 config_type=initial n_minim_iter=14 stress="-1.1529045036790204e-07 5.437277318598607e-06 -1.978315940665354e-05 5.437277318598607e-06 -1.2250578473356316e-05 6.72746272614278e-06 -1.978315940665354e-05 6.72746272614278e-06 2.5830434782397373e-05" pbc="T T T"
Si       4.25679615       7.78535232      -0.25000621
Si       0.61465254       0.26277375       6.48857582
Si      -5.88042615      -2.79115259       8.38916861
Si       2.30336999      -0.98265484       8.15491547
Si     -11.21122528      -0.79931948      10.65481087
Si       8.70467555       4.95715363      -0.37217455
Si       5.66125369      -0.12421427       1.81010747
Si      -0.03598137       1.51151889       7.35956002
Si       0.77735794      -1.14649141       8.84254644
Si      -1.16306851       0.65411576       4.46087615
Si       4.61573417       0.94179244       2.90185910
Si      -2.17606045       3.41352781       3.12054180
Si      -7.17126401      -2.07775587       5.96655602
Si       2.54291288       8.46769185      -0.18989541
Si       9.80984358       3.06928325       1.31172881
Si       6.78690457       6.75720258      -4.75874173
Si       1.15263905      -2.08270699       0.54956620
Si       5.29665805      -2.01236074       5.94490122
Si       4.60971224       3.67766276       2.60682206
Si      -0.30515712       2.06049428       4.66057417
Si      -1.52806402       2.17508167       2.23238534
Si      -0.89175232       0.10265234       7.15838855
22
Lattice="12.836747393430954 1.067498503261846 -1.6037205652226267 -0.6588579633406199 9.60263931908437 -2.251335474936324 -8.591391897145058 -4.857864572876424 10.097685536548465" Properties=species:S:1:pos:R:3 unique_starting_index=18 config_type=initial n_minim_iter=15 stress="1.3554170012029683e-05 -1.6869602304205145e-05 8.60631392624443e-06 -1.6869602304205145e-05 1.1655763398569297e-05 -1.2966242007326933e-05 8.60631392624443e-06 -1.2966242007326933e-05 -3.754832973210061e-05" pbc="T T T"
Si       4.25694787       7.78592685      -0.24965455
Si       0.61480685       0.26299334       6.48848871
Si      -5.88014109      -2.79091319       8.38921344
Si       2.30342874      -0.98260382       8.15482864
Si     -11.21078252      -0.79944069      10.65429018
Si       8.70449881       4.95741915      -0.37214311
Si       5.66130987      -0.12407178       1.81033281
Si      -0.03580539       1.51177185       7.35948253
Si       0.77756011      -1.14640255       8.84244646
Si      -1.16297355       0.65422672       4.46083184
Si       4.61565105       0.94193125       2.90185971
Si      -2.17608294       3.41353397       3.12040853
Si      -7.17077369      -2.07764449       5.96639364
Si       2.54300968       8.46823274      -0.18959070
Si       9.80979188       3.06928534       1.31194010
Si       6.78653463       6.75739960      -4.75841434
Si       1.15265373      -2.08294907       0.54958172
Si       5.29681223      -2.01201543       5.94514133
Si       4.60976458       3.67807865       2.60718963
Si      -0.30510022       2.06066840       4.66049517
Si      -1.52793071       2.17511049       2.23222715
Si      -0.89161537       0.10291904       7.15839775
22
Lattice="12.836321109879224 1.0678622703881286 -1.6036565603941089 -0.6585486217804429 9.602734764760454 -2.2510603455679323 -8.591172849565078 -4.857842192585591 10.09786919639977" Properties=species:S:1:pos:R:3 unique_starting_index=18 config_type=initial n_minim_iter=16 stress="-2.7433342339687454e-05 2.4481384096548006e-05 -7.328434207005657e-06 2.4481384096548006e-05 -2.478865426534886e-05 1.5276879185599978e-05 -7.328434207005657e-06 1.5276879185599978e-05 3.8840335951688195e-05" pbc="T T T"
Si       4.25720786       7.78635289      -0.24927520
Si       0.61478507       0.26330042       6.48874569
Si      -5.87994369      -2.79059515       8.38971030
Si       2.30335428      -0.98236147       8.15511340
Si     -11.21031844      -0.79948477      10.65455870
Si       8.70431999       4.95770110      -0.37211852
Si       5.66118692      -0.12377888       1.81054724
Si      -0.03573400       1.51211750       7.35979041
Si       0.77746793      -1.14618156       8.84277233
Si      -1.16292091       0.65441797       4.46099868
Si       4.61546470       0.94219702       2.90197476
Si      -2.17605249       3.41340521       3.12051561
Si      -7.17032233      -2.07752626       5.96662504
Si       2.54326819       8.46861204      -0.18919548
Si       9.80954705       3.06955565       1.31211781
Si       6.78634478       6.75746953      -4.75830934
Si       1.15259069      -2.08309793       0.54956888
Si       5.29669735      -2.01143248       5.94554920
Si       4.60976295       3.67854408       2.60765662
Si      -0.30512755       2.06084415       4.66065744
Si      -1.52771309       2.17511582       2.23227853
Si      -0.89155193       0.10325963       7.15873557
22
Lattice="12.836519174947401 1.0676394115075103 -1.6033853257549848 -0.658802354682514 9.603274131533736 -2.250935566089234 -8.591073842003025 -4.857880095562513 10.097314616171065" Properties=species:S:1:pos:R:3 unique_starting_index=18 config_type=initial n_minim_iter=17 stress="5.766394545588947e-05 -5.5894131883781826e-05 3.153406131489297e-05 -5.5894131883781826e-05 5.433109664190957e-05 -3.112062935014108e-05 3.153406131489297e-05 -3.112062935014108e-05 -0.00011353491928330567" pbc="T T T"
Si       4.25728683       7.78678358      -0.24911237
Si       0.61484593       0.26334088       6.48850457
Si      -5.87983297      -2.79036547       8.38950305
Si       2.30356457      -0.98254481       8.15481819
Si     -11.21036139      -0.79936895      10.65384940
Si       8.70433065       4.95769668      -0.37197988
Si       5.66136111      -0.12385780       1.81065526
Si      -0.03568164       1.51226040       7.35938305
Si       0.77762253      -1.14627720       8.84240107
Si      -1.16294310       0.65450238       4.46074606
Si       4.61552876       0.94216216       2.90190402
Si      -2.17622844       3.41348608       3.12022553
Si      -7.17014290      -2.07730624       5.96636085
Si       2.54322092       8.46914859      -0.18905475
Si       9.80963895       3.06939437       1.31211691
Si       6.78620357       6.75758621      -4.75799124
Si       1.15271084      -2.08338263       0.54959291
Si       5.29700900      -2.01144920       5.94555213
Si       4.60983551       3.67879455       2.60779700
Si      -0.30524804       2.06098568       4.66037859
Si      -1.52773042       2.17522471       2.23213842
Si      -0.89150826       0.10336495       7.15841769
22
Lattice="12.836075576242225 1.0679942578750985 -1.6036765795721233 -0.6584286926967841 9.603193137344736 -2.250715370638876 -8.591063241410534 -4.857780970724136 10.09799782741309" Properties=species:S:1:pos:R:3 unique_starting_index=18 config_type=initial n_minim_iter=18 stress="-2.8171890356085807e-05 1.6370730298696866e-05 -2.1664828060611638e-05 1.6370730298696866e-05 -3.1713728268535197e-06 5.070018948179207e-06 -2.1664828060611638e-05 5.070018948179207e-06 3.7433587961014e-05" pbc="T T T"
Si       4.25756886       7.78702142      -0.24884456
Si       0.61467702       0.26361345       6.48895303
Si      -5.87979294      -2.78997981       8.39034633
Si       2.30332252      -0.98228692       8.15531088
Si     -11.21019153      -0.79948212      10.65462359
Si       8.70413116       4.95784469      -0.37195548
Si       5.66113494      -0.12355653       1.81078600
Si      -0.03578979       1.51254929       7.35982554
Si       0.77738086      -1.14593646       8.84291745
Si      -1.16302766       0.65462374       4.46104293
Si       4.61528124       0.94243162       2.90205200
Si      -2.17619060       3.41340364       3.12047666
Si      -7.16983519      -2.07712674       5.96693712
Si       2.54351304       8.46938075      -0.18872446
Si       9.80927298       3.06960764       1.31200448
Si       6.78615956       6.75752514      -4.75820586
Si       1.15264880      -2.08349799       0.54958115
Si       5.29671718      -2.01085529       5.94599407
Si       4.60975355       3.67920705       2.60822100
Si      -0.30536441       2.06116790       4.66069034
Si      -1.52766223       2.17518857       2.23235935
Si      -0.89166093       0.10365411       7.15892051
22
Lattice="12.836231052660404 1.0679050526674008 -1.603324740642237 -0.6585251919888904 9.603176249515084 -2.250406800045201 -8.590934752035574 -4.85744720183016 10.097595577093943" Properties=species:S:1:pos:R:3 unique_starting_index=18 config_type=initial n_minim_iter=19 stress="5.021576357361781e-05 -5.23791785827103e-06 4.092616324775792e-05 -5.23791785827103e-06 -2.526934128199641e-05 5.0093943995159104e-05 4.092616324775792e-05 5.0093943995159104e-05 -7.922146287076348e-06" pbc="T T T"
Si       4.25783463       7.78711724      -0.24839880
Si       0.61480225       0.26378835       6.48887899
Si      -5.87961066      -2.78937589       8.39035259
Si       2.30359349      -0.98217725       8.15528865
Si     -11.21021000      -0.79916007      10.65412175
Si       8.70425894       4.95764848      -0.37154843
Si       5.66129744      -0.12344098       1.81102898
Si      -0.03566995       1.51276048       7.35970977
Si       0.77750238      -1.14573141       8.84274624
Si      -1.16299377       0.65477389       4.46101713
Si       4.61539137       0.94255367       2.90221040
Si      -2.17628978       3.41342028       3.12041036
Si      -7.16959624      -2.07669126       5.96680679
Si       2.54366938       8.46955643      -0.18831172
Si       9.80940448       3.06947690       1.31216407
Si       6.78596002       6.75726781      -4.75796853
Si       1.15277974      -2.08368926       0.54961070
Si       5.29704764      -2.01046232       5.94622870
Si       4.60990414       3.67948401       2.60864672
Si      -0.30531970       2.06128368       4.66065646
Si      -1.52772319       2.17514944       2.23229394
Si      -0.89157437       0.10392456       7.15884433
22
Lattice="12.835659674891378 1.06800435839483 -1.603751486413634 -0.6584167035570248 9.603585005816242 -2.2506956807687466 -8.59082599283066 -4.857936527899874 10.098067690939368" Properties=species:S:1:pos:R:3 unique_starting_index=18 config_type=initial n_minim_iter=20 stress="-5.3742192376491197e-05 -1.1897325610845657e-05 -5.6001644367445714e-05 -1.1897325610845657e-05 6.823156557936773e-05 -5.897865858846519e-05 -5.6001644367445714e-05 -5.897865858846519e-05 -4.388561132959395e-06" pbc="T T T"
Si       4.25786640       7.78746219      -0.24866572
Si       0.61451870       0.26353249       6.48879996
Si      -5.87951815      -2.78939951       8.39092280
Si       2.30321739      -0.98256684       8.15530444
Si     -11.21007838      -0.79958436      10.65435944
Si       8.70385018       4.95766116      -0.37193272
Si       5.66100467      -0.12340238       1.81098656
Si      -0.03593949       1.51255004       7.35958861
Si       0.77710626      -1.14613124       8.84265694
Si      -1.16307486       0.65455550       4.46103590
Si       4.61507219       0.94256218       2.90211752
Si      -2.17638827       3.41329075       3.12025781
Si      -7.16924927      -2.07672303       5.96725940
Si       2.54372196       8.46998752      -0.18857845
Si       9.80880058       3.06941318       1.31167801
Si       6.78560520       6.75763064      -4.75859136
Si       1.15281843      -2.08396784       0.54972874
Si       5.29671811      -2.01048589       5.94635550
Si       4.60963492       3.67972742       2.60861592
Si      -0.30551725       2.06115502       4.66058199
Si      -1.52777103       2.17507795       2.23216952
Si      -0.89180112       0.10369594       7.15888098
22
Lattice="12.835834828787752 1.068033742673204 -1.6033705070414546 -0.6584009957718739 9.603153761349638 -2.250425749536898 -8.590729084095516 -4.857516163211909 10.097751427475476" Properties=species:S:1:pos:R:3 unique_starting_index=18 config_type=initial n_minim_iter=21 stress="9.417432521181881e-06 4.033050196285061e-06 1.9695992675485103e-05 4.033050196285061e-06 -9.979761761311572e-06 2.3742638315361577e-05 1.9695992675485103e-05 2.3742638315361577e-05 3.507331279310916e-06" pbc="T T T"
Si       4.25813656       7.78723515      -0.24822439
Si       0.61467495       0.26367369       6.48880980
Si      -5.87935971      -2.78886080       8.39089002
Si       2.30343688      -0.98229930       8.15540013
Si     -11.21001940      -0.79937466      10.65400291
Si       8.70400056       4.95744425      -0.37154123
Si       5.66117519      -0.12321764       1.81122204
Si      -0.03574782       1.51271419       7.35963151
Si       0.77731194      -1.14585473       8.84259893
Si      -1.16296655       0.65458095       4.46101109
Si       4.61524595       0.94272228       2.90235677
Si      -2.17636545       3.41315312       3.12024796
Si      -7.16911777      -2.07637663       5.96713268
Si       2.54394366       8.46975501      -0.18819797
Si       9.80893637       3.06934491       1.31200742
Si       6.78556799       6.75728949      -4.75833823
Si       1.15291771      -2.08397899       0.54976114
Si       5.29702320      -2.01002911       5.94658964
Si       4.60983508       3.67983846       2.60901255
Si      -0.30544252       2.06117534       4.66066525
Si      -1.52773289       2.17500629       2.23213069
Si      -0.89166498       0.10387840       7.15887349
