2
Lattice="2.743615938480573 -3.3705538770313747e-17 2.743615938480573 2.743615938480573 2.743615938480573 1.5291795876769472e-16 -8.483902406903408e-17 2.743615938480573 2.743615938480573" Properties=species:S:1:pos:R:3 n_minim_iter=2 pbc="T T T"
Si       0.00000000       0.00000000       0.00000000
Si       1.37180797       1.37180797       1.37180797
