1
Lattice="2.6246479689997697 1.5149621927960504e-17 0.0 1.312323984499885 2.273011817145032 0.0 0.0 0.0 2.4388342468422097" Properties=species:S:1:pos:R:3 cutoff=-1.0 nneightol=1.2 n_minim_iter=1 energy=-162.8271307942712 free_energy=-162.8271307942712 pbc="T T T"
Si       0.00000000       0.00000000       0.00000000
