1
Lattice="2.670221322698848 1.0617843585527483e-16 -2.6107180324961115e-50 1.335110661349424 2.3124794991840876 -3.1759335834263517e-50 4.474833805079187e-50 1.142151506536341e-50 2.4800585257803487" Properties=species:S:1:pos:R:3 cutoff=-1.0 nneightol=1.2 n_minim_iter=1 energy=-162.83505590530314 free_energy=-162.83505590530314 pbc="T T T"
Si       0.00000000       0.00000000       0.00000000
