1
Lattice="2.6922902683111825 1.0705598338520183e-16 -2.632295193077716e-50 1.3461451341555917 2.3315917667191064 -3.202182158750506e-50 4.511817579805663e-50 1.1515912032627982e-50 2.5005558067568687" Properties=species:S:1:pos:R:3 cutoff=-1.0 nneightol=1.2 n_minim_iter=1 energy=-162.82980617489397 free_energy=-162.82980617489397 pbc="T T T"
Si       0.00000000       0.00000000       0.00000000
