1
Lattice="2.578070341613341 1.0251415269229761e-16 -2.5206205465734894e-50 1.2890351708066705 2.232674408580379 -3.066330161010659e-50 2.3049298426173354e-49 1.6597912593446207e-49 2.394470179841614" Properties=species:S:1:pos:R:3 cutoff=-1.0 nneightol=1.2 n_minim_iter=1 energy=-162.78757678198716 free_energy=-162.78757678198716 pbc="T T T"
Si       0.00000000       0.00000000       0.00000000
1
Lattice="2.56954459554133 1.1255497440889288e-16 -1.135194954328343e-51 1.284772297770665 2.2252908958958035 1.9095899162760118e-50 2.2460768985149476e-49 1.8369089268723494e-49 2.410386239558901" Properties=species:S:1:pos:R:3 cutoff=-1.0 nneightol=1.2 n_minim_iter=2 stress="-0.07529174458228234 1.1240911148434023e-16 -5.325609907530696e-18 1.1240911148434023e-16 -0.07529174458228025 -3.4628264125480245e-17 -5.325609907530696e-18 -3.4628264125480245e-17 -0.07528938027675226" pbc="T T T"
Si       0.00000000       0.00000000       0.00000000
