1
Lattice="2.4111467560158757 1.0228401346323009e-16 8.298106507835824e-50 1.2055733780079378 2.088114342962188 3.075758971434314e-50 -2.037694921271039e-49 1.0738800906353832e-49 2.281237082562737" Properties=species:S:1:pos:R:3 cutoff=-1.0 nneightol=1.2 n_minim_iter=1 energy=-162.36275901257926 free_energy=-162.36275901257926 pbc="T T T"
Si       0.00000000       0.00000000       0.00000000
