4
Lattice="3.7515549107338066 0.0 0.0 0.0 3.7515549107338066 0.0 0.0 0.0 3.7515549107338066" Properties=species:S:1:pos:R:3 n_minim_iter=1 stress="-0.1901141657009547 7.702305123320582e-18 -1.3141844514975817e-19 7.702305123320582e-18 -0.19011416570095474 -7.084282041272365e-19 -1.3141844514975817e-19 -7.084282041272365e-19 -0.19011416570095468" pbc="T T T"
Al       0.00000000       0.00000000       0.00000000
Al       1.87577746       1.87577746       0.00000000
Al       1.87577746       0.00000000       1.87577746
Al       0.00000000       1.87577746       1.87577746
