1
Lattice="2.5216162131368156 5.572558942363597e-17 1.2466853953261005e-49 1.260808106568408 2.1837836991711974 2.4424791481698926e-49 -1.1355739225337925e-48 -1.3832745069561308e-48 2.360923155415938" Properties=species:S:1:pos:R:3 cutoff=-1.0 nneightol=1.2 n_minim_iter=1 energy=-162.70554353481893 free_energy=-162.70554353481893 pbc="T T T"
Si       0.00000000       0.00000000       0.00000000
1
Lattice="2.5151804095334485 5.0170963074880015e-17 1.5223285168054981e-49 1.2575902047667245 2.1782101297569136 1.780255251342843e-49 -1.1442434314308928e-48 -1.3285076160504663e-48 2.3730207984605336" Properties=species:S:1:pos:R:3 cutoff=-1.0 nneightol=1.2 n_minim_iter=2 stress="-0.13824179088989522 6.909606154779143e-16 -4.3165232163971375e-17 6.909606154779143e-16 -0.13824179088989602 1.0674555094645163e-18 -4.3165232163971375e-17 1.0674555094645163e-18 -0.13823289693812868" pbc="T T T"
Si       0.00000000       0.00000000       0.00000000
