2
Lattice="3.2429740366644406 0.0 0.0 0.0 3.242974036664442 0.0 0.0 0.0 3.2429740366644406" Properties=species:S:1:pos:R:3 Minim_Constant_Volume=F n_minim_iter=1 stress="0.04474861045968054 3.453100092340768e-18 -6.025669677425933e-19 3.453100092340768e-18 0.0447486104596807 1.04147536476355e-19 -6.025669677425933e-19 1.04147536476355e-19 0.044748610459680545" pbc="T T T"
Ti       0.00000000       0.00000000       0.00000000
Ti       1.62148702       1.62148702       1.62148702
