8
Lattice="6.8974118034351015 0.0 0.0 0.0 2.6164428395300146 -2.866819751709586e-20 0.0 3.607377221966164e-38 6.89793334497271" Properties=species:S:1:pos:R:3 unique_starting_index=2 config_type=initial n_minim_iter=17 energy=-1301.8782842949317 free_energy=-1301.8782842949317 pbc="T T T"
Si       3.44679149       0.64447990       5.12425019
Si       3.45062031       0.64447990       1.77368316
Si       5.12532002       1.97063394       3.44707949
Si       1.77209178       1.97063394       3.45085385
Si       6.89932621       1.97196294       1.67528351
Si      -0.00191441       1.97196294       5.22264983
Si       5.22079768       0.64580890       6.89604616
Si       1.67661412       0.64580890       0.00188718
