2
Lattice="2.791086935400819 0.0 0.0 0.0 2.791086935400819 0.0 0.0 0.0 4.027574436069545" Properties=species:S:1:pos:R:3:tags:I:1 spacegroup="P 1" unit_cell=conventional n_minim_iter=1 energy=-1704.287990456795 free_energy=-1704.287990456795 pbc="T T T"
Ti       1.39554347       1.39554347       2.01378722        0
Al       0.00000000       0.00000000       0.00000000        1
