4
Lattice="2.030162867395461 -3.516345233968656 -1.9306144710496186e-17 2.030162867395461 3.516345233968656 1.9306144710496233e-17 -6.826456191814999e-32 -3.689174109619988e-17 6.71931656587556" Properties=species:S:1:pos:R:3 cutoff=-1.0 nneightol=1.2 n_minim_iter=1 energy=-652.1447505065652 free_energy=-652.1447505065652 pbc="T T T"
Si       2.03016287       1.17211508       0.42240249
Si       2.03016287      -1.17211508       3.78206077
Si       2.03016287       1.17211508       2.93725580
Si       2.03016287      -1.17211508      -0.42240249
4
Lattice="2.029542766080711 -3.5152711869856703 -1.9431184559922834e-17 2.029542766080711 3.5152711869856703 1.943118455992288e-17 -6.499066268826575e-32 -3.666408354493383e-17 6.7234231987992334" Properties=species:S:1:pos:R:3 cutoff=-1.0 nneightol=1.2 n_minim_iter=2 stress="0.06181997443673101 1.3345204548343421e-17 1.0020963864445408e-17 1.3345204548343421e-17 0.06181997443673131 -2.5719869139811294e-17 1.0020963864445408e-17 -2.5719869139811294e-17 0.06185473464335586" pbc="T T T"
Si       2.02954277       1.17175706       0.42285993
Si       2.02954277      -1.17175706       3.78457153
Si       2.02954277       1.17175706       2.93885167
Si       2.02954277      -1.17175706      -0.42285993
4
Lattice="2.029193529252567 -3.5146662910554505 -2.0753236720521853e-17 2.029193529252567 3.5146662910554505 2.075323672052182e-17 -6.12604299398005e-32 -3.414459929801597e-17 6.725737683856313" Properties=species:S:1:pos:R:3 cutoff=-1.0 nneightol=1.2 n_minim_iter=3 stress="0.06170460845604111 8.057908238806332e-18 8.541043690712321e-18 8.057908238806332e-18 0.06170460845604135 8.660269877232317e-17 8.541043690712321e-18 8.660269877232317e-17 0.06197800861798182" pbc="T T T"
Si       2.02919353       1.17155543       0.42376008
Si       2.02919353      -1.17155543       3.78662893
Si       2.02919353       1.17155543       2.93910876
Si       2.02919353      -1.17155543      -0.42376008
