14
Lattice="19.705287055292754 0.443974181856 -2.79571492876841e-17 -0.32314354603960344 3.4091370173799653 -2.146740878944875e-16 -1.0326706839635145e-27 2.7771588563399707e-15 44.102738030250464" Properties=species:S:1:pos:R:3 unique_starting_index=0 config_type=initial n_minim_iter=2 energy=-2235.6233983710313 free_energy=-2235.6233983710313 pbc="T T T"
Si       5.14585137       0.99866000      34.14616319
Si       4.54522038       0.92789560      12.09479418
Si      14.23629214       2.85445120       9.95657484
Si      14.83692313       2.92521560      32.00794385
Si      16.66790929       1.27272772      15.39986669
Si      12.72844952       1.09780206      37.45123571
Si       2.71423422       2.58038348      28.70287134
Si       6.65369399       2.75530914       6.65150232
Si       7.85442956       1.03457465      17.22430587
Si       1.83664220       0.89198095      39.27567488
Si      11.52771395       2.81853655      26.87843216
Si      17.54550131       2.96113025       4.82706315
Si       9.85264353       0.22198709      -0.00000000
Si      -0.16157177       1.70456851      22.05136902
