4
Lattice="1.8606997817919764 -3.222826559696027 -1.4454303283496224e-17 1.8606997817919768 3.222826559696027 1.4454303283496178e-17 7.322676308548604e-32 -2.7476605470996993e-17 6.126364733423475" Properties=species:S:1:pos:R:3 cutoff=-1.0 nneightol=1.2 n_minim_iter=1 energy=-652.4177447456303 free_energy=-652.4177447456303 pbc="T T T"
Si       1.86069978       1.07427552       0.38534853
Si       1.86069978      -1.07427552       3.44853089
Si       1.86069978       1.07427552       2.67783384
Si       1.86069978      -1.07427552      -0.38534853
4
Lattice="1.8593256876984363 -3.2204465589116347 -1.4831816638809528e-17 1.8593256876984368 3.2204465589116347 1.4831816638809343e-17 5.422149770445793e-32 -2.6779575508664356e-17 6.135423191868838" Properties=species:S:1:pos:R:3 cutoff=-1.0 nneightol=1.2 n_minim_iter=2 stress="-0.06407242753169917 -1.4649789838738657e-16 2.1674570751533184e-16 -1.4649789838738657e-16 -0.06407242753170023 -8.884149064916735e-17 2.1674570751533184e-16 -8.884149064916735e-17 -0.06265663122262143" pbc="T T T"
Si       1.85932569       1.07348219       0.38721890
Si       1.85932569      -1.07348219       3.45493049
Si       1.85932569       1.07348219       2.68049270
Si       1.85932569      -1.07348219      -0.38721890
4
Lattice="1.8594612502270078 -3.220681360098723 -1.4878488629528335e-17 1.8594612502270083 3.220681360098723 1.4878488629528147e-17 5.300044538967145e-32 -2.6688677037205422e-17 6.134528628281441" Properties=species:S:1:pos:R:3 cutoff=-1.0 nneightol=1.2 n_minim_iter=3 stress="-0.06336725957104396 -3.1504031674431117e-16 -5.2563283543319735e-17 -3.1504031674431117e-16 -0.06336725957104372 2.9549869382998347e-17 -5.2563283543319735e-17 2.9549869382998347e-17 -0.06385618807209298" pbc="T T T"
Si       1.85946125       1.07356045       0.38832955
Si       1.85946125      -1.07356045       3.45559386
Si       1.85946125       1.07356045       2.67893477
Si       1.85946125      -1.07356045      -0.38832955
4
Lattice="1.8594287847907307 -3.2206251283136016 -1.4812874686048188e-17 1.8594287847907311 3.2206251283136016 1.4812874686048e-17 5.32213847361448e-32 -2.6813935291064774e-17 6.134742846635548" Properties=species:S:1:pos:R:3 cutoff=-1.0 nneightol=1.2 n_minim_iter=4 stress="-0.06354858510268216 -8.403424914502928e-17 1.49361649733926e-16 -8.403424914502928e-17 -0.06354858510268213 2.1845773976865117e-16 1.49361649733926e-16 2.1845773976865117e-16 -0.06354716817055812" pbc="T T T"
Si       1.85942878       1.07354171       0.38803841
Si       1.85942878      -1.07354171       3.45540983
Si       1.85942878       1.07354171       2.67933301
Si       1.85942878      -1.07354171      -0.38803841
