4
Lattice="2.0305157768291817 -3.5169564910383304 -1.5549500296028574e-17 2.0305157768291817 3.5169564910383304 1.5549500296028537e-17 6.115661417516366e-32 -2.969528682111504e-17 6.716423663173241" Properties=species:S:1:pos:R:3 cutoff=-1.0 nneightol=1.2 n_minim_iter=1 energy=-652.1311754329369 free_energy=-652.1311754329369 pbc="T T T"
Si       2.03051578       1.17231883       0.42124737
Si       2.03051578      -1.17231883       3.77945921
Si       2.03051578       1.17231883       2.93696446
Si       2.03051578      -1.17231883      -0.42124737
4
Lattice="2.0296205056563505 -3.515405835880435 -1.5967721189497164e-17 2.0296205056563505 3.515405835880435 1.5967721189497084e-17 6.148217675064857e-32 -2.890970968384883e-17 6.722350235804246" Properties=species:S:1:pos:R:3 cutoff=-1.0 nneightol=1.2 n_minim_iter=2 stress="0.06283358495331427 -4.9251610251031914e-17 8.343848374532685e-17 -4.9251610251031914e-17 0.06283358495331443 1.3816767519071933e-17 8.343848374532685e-17 1.3816767519071933e-17 0.06287253489748787" pbc="T T T"
Si       2.02962051       1.17180195       0.42196926
Si       2.02962051      -1.17180195       3.78314438
Si       2.02962051       1.17180195       2.93920585
Si       2.02962051      -1.17180195      -0.42196926
4
Lattice="2.0289280297476115 -3.514206432423484 -1.8382880451570223e-17 2.0289280297476115 3.514206432423484 1.8382880451570164e-17 5.962729606616172e-32 -2.4308027622967966e-17 6.726939713508975" Properties=species:S:1:pos:R:3 cutoff=-1.0 nneightol=1.2 n_minim_iter=3 stress="0.06257673703392158 1.3167268560942583e-17 2.4738588158562464e-17 1.3167268560942583e-17 0.06257673703392125 4.8861932845069766e-17 2.4738588158562464e-17 4.8861932845069766e-17 0.06310272152393696" pbc="T T T"
Si       2.02892803       1.17140214       0.42358903
Si       2.02892803      -1.17140214       3.78705888
Si       2.02892803       1.17140214       2.93988083
Si       2.02892803      -1.17140214      -0.42358903
