2
Lattice="4.963692113918991 -1.0464729625871912e-16 2.669026082778016e-15 -1.0464729625870384e-16 4.963692113918991 -4.6548795393139566e-15 2.4818460569594945 2.481846056959497 1.4946082985618268" Properties=species:S:1:pos:R:3 cutoff=-1.0 nneightol=1.2 n_minim_iter=1 energy=-325.5276247186727 free_energy=-325.5276247186727 pbc="T T T"
Si      -0.00000000      -1.24092303      -0.37365207
Si      -0.00000000       1.24092303       0.37365207
