2
Lattice="2.7704837124461603 0.0 0.0 0.0 2.7704837124461603 0.0 0.0 0.0 3.9851133942331094" Properties=species:S:1:pos:R:3:tags:I:1 spacegroup="P 1" unit_cell=conventional n_minim_iter=1 energy=-1704.2962779335094 free_energy=-1704.2962779335094 pbc="T T T"
Ti       1.38524186       1.38524186       1.99255670        0
Al       0.00000000       0.00000000       0.00000000        1
