2
Lattice="2.521954390248709 -4.999143622604956e-17 2.521954390248709 2.521954390248709 2.521954390248709 1.1796941428028608e-16 1.5403533232895945e-17 2.521954390248709 2.521954390248709" Properties=species:S:1:pos:R:3 n_minim_iter=1 energy=-325.59019708262025 free_energy=-325.59019708262025 pbc="T T T"
Si       0.00000000       0.00000000       0.00000000
Si       1.26097720       1.26097720       1.26097720
