1
Lattice="3.8543095416726305 0.6280446208436583 -3.832092176661222e-10 0.8932945918725919 3.80160056567369 -8.109986336148752e-10 -2.3738020666266952 -2.2148225928299947 2.170199695781015" Properties=species:S:1:pos:R:3:spacegroup_kinds:I:1 spacegroup="P 1" unit_cell=conventional occupancy="_JSON {\"0\": {\"In\": 1}}" n_minim_iter=6 pbc="T T T"
In       0.00000000       0.00000000       0.00000000        0
