4
Lattice="4.190758212686589 0.0 0.0 0.0 4.190758212686589 0.0 0.0 0.0 4.190758212686589" Properties=species:S:1:pos:R:3 n_minim_iter=1 stress="0.0524595315255352 -7.319235145870771e-19 -0.0 -7.319235145870771e-19 0.0524595315255352 1.4711964852958053e-35 -0.0 1.4711964852958053e-35 0.05245953152553521" pbc="T T T"
Al       0.00000000       0.00000000       0.00000000
Al       2.09537911       2.09537911       0.00000000
Al       2.09537911       0.00000000       2.09537911
Al       0.00000000       2.09537911       2.09537911
