4
Lattice="4.097599229036533 0.0 0.0 0.0 4.097599229036533 0.0 0.0 0.0 4.097599229036533" Properties=species:S:1:pos:R:3 n_minim_iter=1 stress="0.040931462243393224 6.961367347756799e-19 -6.632243619866731e-19 6.961367347756799e-19 0.040931462243393224 5.988325952681571e-19 -6.632243619866731e-19 5.988325952681571e-19 0.04093146224339325" pbc="T T T"
Al       0.00000000       0.00000000       0.00000000
Al       2.04879961       2.04879961       0.00000000
Al       2.04879961       0.00000000       2.04879961
Al       0.00000000       2.04879961       2.04879961
