1
Lattice="2.710718532072016 6.0591444713763e-17 9.265772671115278e-50 1.355359266036008 2.3475511112836287 -3.5971005619544736e-49 -2.3778545315452954e-49 1.8142459244071077e-48 2.526140302894081" Properties=species:S:1:pos:R:3 cutoff=-1.0 nneightol=1.2 n_minim_iter=1 energy=-162.81821880320578 free_energy=-162.81821880320578 pbc="T T T"
Si       0.00000000       0.00000000       0.00000000
