1
Lattice="2.4424528858514964 1.0694196131112228e-16 1.0357069717691275e-49 1.2212264429257484 2.115226246694009 9.574435148013861e-49 -1.5889013807304092e-48 -7.076567835512176e-48 2.2955230589471496" Properties=species:S:1:pos:R:3 cutoff=-1.0 nneightol=1.2 n_minim_iter=1 energy=-162.47187273539495 free_energy=-162.47187273539495 pbc="T T T"
Si       0.00000000       0.00000000       0.00000000
