14
Lattice="6.077490775101279 1.227361084768333 1.0741440008484193 -0.1522501920416942 1.3187012260299107 0.19012466159989172 -6.1767938882297875 -1.4386542684832084 -0.8955798476568471" Properties=species:S:1:pos:R:3 unique_starting_index=10 config_type=initial n_minim_iter=1 energy=-2.7668868615209523e+17 free_energy=-2.7668868615209523e+17 pbc="T T T"
Si       1.11202263       0.63109469       1.26532433
Si      -0.88258617      -0.46499209       0.02650422
Si       1.45842108      -0.13095090       0.92813108
Si       1.54021094      -0.39331025       1.25510226
Si      -2.89453763      -0.26584882      -1.12342060
Si      -0.80062572       1.04153115      -0.06316464
Si      -3.24093608       0.49619678      -0.78622735
Si       2.70181775       3.51591162      -0.02749403
Si       2.73336137       2.17829728       0.14802695
Si      -3.94889507      -0.86203884      -0.43794937
Si       1.50866732       0.94430409       1.07958128
Si      -3.91111071      -0.00007637      -0.49429090
Si       1.97285640       0.43315826       0.50188238
Si       2.42142248       1.37074189       0.53560119
14
Lattice="6.027796534725688 1.1814762925733016 1.1441820292812548 -0.14745614714486216 1.2674321187894106 0.18469105662537696 -6.123098126242471 -1.3841471500766862 -0.9728475403511859" Properties=species:S:1:pos:R:3 unique_starting_index=10 config_type=initial n_minim_iter=2 stress="5.308892306513554e+17 -9575481702236044.0 -8.568797947632243e+17 -9575481702236044.0 2.021191824235763e+18 -5.450937934081982e+16 -8.568797947632243e+17 -5.450937934081982e+16 1.5148586901424932e+18" pbc="T T T"
Si       1.12384755       0.60892261       1.24985604
Si      -0.87141057      -0.44682329       0.01098188
Si       1.46038377      -0.12388210       0.92634875
Si       1.54236311      -0.37395987       1.24665791
Si      -2.88434118      -0.25772388      -1.14038152
Si      -0.79378146       1.00069288      -0.07284185
Si      -3.22087740       0.47508083      -0.81687423
Si       2.67278524       3.37673787       0.02035521
Si       2.70355378       2.09331981       0.19130578
Si      -3.91222331      -0.82921588      -0.49104314
Si       1.51159457       0.90945819       1.07570734
Si      -3.87606685      -0.00106168      -0.54366437
Si       1.96328990       0.41583923       0.51812643
Si       2.39931460       1.31950665       0.56419563
14
Lattice="5.937236961702983 1.1744184674251594 1.142762568825242 -0.14995879533555215 1.2650321116262777 0.20551337834284347 -6.031162824474357 -1.3731379524975533 -0.9742024624677633" Properties=species:S:1:pos:R:3 unique_starting_index=10 config_type=initial n_minim_iter=3 stress="1.4746337787372173e+17 -4327620356747450.0 -1.1387219479243578e+18 -4327620356747450.0 2.1232559054742193e+18 -7.772726112397115e+16 -1.1387219479243578e+18 -7.772726112397115e+16 1.448105776303157e+18" pbc="T T T"
Si       1.10223777       0.62293976       1.25741168
Si      -0.85605215      -0.44468185       0.00545474
Si       1.43825346      -0.11372734       0.91932003
Si       1.49380836      -0.34481121       1.26354208
Si      -2.83990490      -0.26584952      -1.13612713
Si      -0.78768912       1.00049158      -0.05273029
Si      -3.17592058       0.47081758      -0.79803548
Si       2.64972854       3.34007151       0.03745832
Si       2.65959947       2.07777070       0.21429037
Si      -3.85464767      -0.82057957      -0.48988272
Si       1.48393743       0.91748960       1.08671003
Si      -3.82025642       0.00325134      -0.53159530
Si       1.95718491       0.40245392       0.49097097
Si       2.33631079       1.32777428       0.60451604
14
Lattice="6.026887855952099 1.1680072118462421 1.256108666362774 -0.15441153931880075 1.2639801814823093 0.23139314917644105 -6.11910117225281 -1.3620581794690467 -1.090757022168929" Properties=species:S:1:pos:R:3 unique_starting_index=10 config_type=initial n_minim_iter=4 stress="9.00842185945479e+17 1.6173257306921938e+16 -7.247332446510368e+17 1.6173257306921938e+16 2.1594886798432018e+18 -8.783237823632992e+16 -7.247332446510368e+17 -8.783237823632992e+16 1.7230964296190536e+18" pbc="T T T"
Si       1.13155808       0.64178135       1.30045958
Si      -0.86338879      -0.44286715      -0.01618597
Si       1.47167444      -0.10097199       0.94600458
Si       1.50816709      -0.31066616       1.31896704
Si      -2.89240867      -0.27687446      -1.19291441
Si      -0.80524848       1.00182500      -0.04162051
Si      -3.23252503       0.46587887      -0.83845942
Si       2.69567195       3.30161141       0.11072830
Si       2.68938955       2.06167334       0.29098270
Si      -3.91004614      -0.81134240      -0.56036572
Si       1.51444949       0.92927191       1.13871264
Si      -3.87769231       0.00824207      -0.58819778
Si       2.01245124       0.38875453       0.50252670
Si       2.34579934       1.33821053       0.69577548
14
Lattice="5.981685138070543 1.1286596483045948 1.3318693799813068 -0.16926211019790222 1.2691095651600992 0.2810671442827948 -6.070235291541165 -1.3144501168687623 -1.1721693645597457" Properties=species:S:1:pos:R:3 unique_starting_index=10 config_type=initial n_minim_iter=5 stress="9.815636001512273e+17 1.84601140828558e+16 -7.132142023015722e+17 1.84601140828558e+16 2.2405965746937969e+18 -7.175320051555377e+16 -7.132142023015722e+17 -7.175320051555377e+16 1.8336517864520115e+18" pbc="T T T"
Si       1.12165649       0.67422457       1.34464468
Si      -0.85053463      -0.43799941      -0.03940028
Si       1.47014206      -0.08684845       0.95446598
Si       1.50606161      -0.27878173       1.33486895
Si      -2.87684958      -0.28324301      -1.22726164
Si      -0.81610831       1.01477144      -0.00291669
Si      -3.22533516       0.47783002      -0.83708294
Si       2.63971847       3.25332297       0.23575060
Si       2.64906427       2.02726304       0.37787354
Si      -3.88104043      -0.77664455      -0.60655438
Si       1.49671582       0.94727820       1.19274601
Si      -3.85583780       0.03896647      -0.60793196
Si       2.00033428       0.37536511       0.52020683
Si       2.31470792       1.33006657       0.76934557
14
Lattice="6.002033507751044 1.049243765104298 1.3527804214222088 -0.1962028682188836 1.2802807375516538 0.3240529869530723 -6.087742847865545 -1.2275843385897012 -1.2004494249728146" Properties=species:S:1:pos:R:3 unique_starting_index=10 config_type=initial n_minim_iter=6 stress="1.1188602686500648e+18 -1.9107344431143252e+16 -7.207647028220902e+17 -1.9107344431143252e+16 2.360886068621487e+18 -1.133742940018018e+16 -7.207647028220902e+17 -1.133742940018018e+16 1.945732948280529e+18" pbc="T T T"
Si       1.10887773       0.70157237       1.36294539
Si      -0.84241917      -0.44166645      -0.06910018
Si       1.48094168      -0.08940718       0.93458889
Si       1.51703121      -0.26559405       1.31951414
Si      -2.88510226      -0.27118362      -1.22960426
Si      -0.84809603       1.05039577       0.05011031
Si      -3.25716621       0.51979594      -0.80124776
Si       2.59828423       3.20384788       0.33832940
Si       2.63344317       1.98196319       0.43842578
Si      -3.89643775      -0.71859234      -0.62400512
Si       1.48187227       0.95629064       1.21941776
Si      -3.88182029       0.09973732      -0.59543417
Si       2.00959011       0.34640568       0.51444651
Si       2.30192820       1.31156741       0.81934405
14
Lattice="5.874992392509024 1.1336085721289677 1.5367481595075636 -0.1715409447060359 1.2708782551832343 0.34940195402906477 -5.956895228814292 -1.3084573347149884 -1.3842121548512216" Properties=species:S:1:pos:R:3 unique_starting_index=10 config_type=initial n_minim_iter=7 stress="1.0331203195583319e+18 4.174287650228016e+16 -6.938400016105096e+17 4.174287650228016e+16 2.410583420851742e+18 1.6865486256398498e+16 -6.938400016105096e+17 1.6865486256398498e+16 2.0668400653965128e+18" pbc="T T T"
Si       1.09027156       0.75394248       1.44847258
Si      -0.82414910      -0.48464218      -0.11590632
Si       1.45303440      -0.07084188       0.96560914
Si       1.49884701      -0.23222778       1.39166187
Si      -2.81052962      -0.34645907      -1.34180415
Si      -0.81420612       1.06697435       0.07003875
Si      -3.17329246       0.47832528      -0.85894070
Si       2.56624922       3.21904677       0.44862067
Si       2.61194139       1.99219251       0.52227417
Si      -3.81895817      -0.77329219      -0.73586597
Si       1.45315484       0.99462649       1.31800837
Si      -3.77629228       0.04716702      -0.69421376
Si       1.95892947       0.37130430       0.55251075
Si       2.27770770       1.34463644       0.93836984
14
Lattice="5.837910031081404 0.9773350686196535 1.5427626596306283 -0.19682511316819076 1.2321704572700214 0.35115589595369323 -5.916417045097161 -1.1444792323084083 -1.3830753878859823" Properties=species:S:1:pos:R:3 unique_starting_index=10 config_type=initial n_minim_iter=8 stress="1.0443499850857705e+18 4041952141405866.5 -6.863051811843356e+17 4041952141405866.5 2.4594219558876037e+18 2388640269500681.5 -6.863051811843356e+17 2388640269500681.5 2.1079595698310467e+18" pbc="T T T"
Si       1.05540069       0.73364767       1.48883000
Si      -0.80128988      -0.46843474      -0.08349901
Si       1.46127271      -0.12287488       0.95601325
Si       1.50776645      -0.26698025       1.44500899
Si      -2.78025755      -0.30456984      -1.37162284
Si      -0.84505997       1.06465673       0.04101891
Si      -3.18612957       0.55195272      -0.83880608
Si       2.48696862       3.07270777       0.40642946
Si       2.59204942       1.86148960       0.48200499
Si      -3.80657305      -0.67523775      -0.71796005
Si       1.40268565       0.94423793       1.36943346
Si      -3.75619384       0.12698052      -0.70759544
Si       1.93603368       0.31752474       0.52678275
Si       2.25552651       1.25603232       0.97349981
14
Lattice="5.8859258635464435 0.9260596384160997 1.47796631924804 -0.20370984314532353 1.186433112318466 0.36114649828832274 -5.967996768274845 -1.0852783629388891 -1.3122948769331966" Properties=species:S:1:pos:R:3 unique_starting_index=10 config_type=initial n_minim_iter=9 stress="1.092769559966035e+18 -1638404049019762.2 -6.831723770192974e+17 -1638404049019762.2 2.466160676663683e+18 424303988140834.1 -6.831723770192974e+17 424303988140834.1 2.1297841718548833e+18" pbc="T T T"
Si       1.03716450       0.72840022       1.50749177
Si      -0.81970570      -0.45286922      -0.06670840
Si       1.48031805      -0.13814460       0.93060440
Si       1.51163730      -0.26470700       1.46757476
Si      -2.78453470      -0.30891838      -1.35761631
Si      -0.84559360       1.03156979       0.05091242
Si      -3.22768826       0.55762644      -0.78072894
Si       2.50527943       2.95590032       0.35574207
Si       2.63749932       1.77191049       0.42307225
Si      -3.85216224      -0.64221541      -0.65305253
Si       1.37941740       0.91928282       1.40024458
Si      -3.78113383       0.13563762      -0.67503833
Si       1.94786134       0.30097782       0.48712530
Si       2.27276523       1.20378239       0.97504504
14
Lattice="5.895402326544554 0.9095537282513992 1.440127851289543 -0.20439593366099104 1.1584948546495812 0.3686472205510293 -5.979984982013378 -1.0642589069150417 -1.269321770182661" Properties=species:S:1:pos:R:3 unique_starting_index=10 config_type=initial n_minim_iter=10 stress="1.1015324552706273e+18 5165888195564732.0 -6.806426505500273e+17 5165888195564732.0 2.4702464604362977e+18 -1715407814276884.0 -6.806426505500273e+17 -1715407814276884.0 2.1460971372525957e+18" pbc="T T T"
Si       1.01987394       0.73273236       1.51914886
Si      -0.81642229      -0.45521144      -0.05868324
Si       1.50564059      -0.15476861       0.92016440
Si       1.50516337      -0.26976656       1.48779335
Si      -2.77389545      -0.32330742      -1.34648628
Si      -0.85301657       1.01934156       0.06053973
Si      -3.25966211       0.56419355      -0.74750183
Si       2.51640416       2.90194527       0.32283822
Si       2.65772279       1.70973086       0.37087329
Si      -3.87023869      -0.63498146      -0.59878881
Si       1.36384475       0.92244785       1.43975827
Si      -3.77918515       0.13485268      -0.66867647
Si       1.96657458       0.28911373       0.47912669
Si       2.25938889       1.18457012       0.96285765
14
Lattice="5.8986970536022465 0.884412253000507 1.40081052916655 -0.20693133267188918 1.1322146668917195 0.3747294909176577 -5.985457578600854 -1.034962375659001 -1.2243249401997354" Properties=species:S:1:pos:R:3 unique_starting_index=10 config_type=initial n_minim_iter=11 stress="1.0997264465432442e+18 1.3406840607579988e+16 -6.704367608431843e+17 1.3406840607579988e+16 2.45843254840237e+18 -2.139825921392433e+16 -6.704367608431843e+17 -2.139825921392433e+16 2.1421312955828076e+18" pbc="T T T"
Si       1.01193217       0.73512468       1.53588926
Si      -0.81536142      -0.45759316      -0.05084201
Si       1.52335082      -0.17740000       0.90145863
Si       1.49683436      -0.27910035       1.50890015
Si      -2.77194572      -0.33289193      -1.34031639
Si      -0.85789160       1.01037604       0.06992930
Si      -3.28336437       0.57963276      -0.70588576
Si       2.52167834       2.84851015       0.28572715
Si       2.66539395       1.64165458       0.30796877
Si      -3.88384408      -0.62446100      -0.53738620
Si       1.35311875       0.92775522       1.48665853
Si      -3.77486652       0.14228150      -0.66785146
Si       1.98180525       0.27129525       0.46936390
Si       2.24363878       1.16589988       0.95053391
14
Lattice="5.928005617550624 0.8997002662724264 1.3548465642422094 -0.20352178345553623 1.111658360582103 0.3854056298439812 -6.018439512285321 -1.0466732598369297 -1.1750222790444693" Properties=species:S:1:pos:R:3 unique_starting_index=10 config_type=initial n_minim_iter=12 stress="1.1330256475914135e+18 3.1879665390744104e+16 -6.711346668454953e+17 3.1879665390744104e+16 2.4773439408002755e+18 -2.371899984842073e+16 -6.711346668454953e+17 -2.371899984842073e+16 2.1634580672647867e+18" pbc="T T T"
Si       1.00966193       0.75210028       1.54577004
Si      -0.82399999      -0.46550079      -0.03512205
Si       1.54471116      -0.18841146       0.87339360
Si       1.48668386      -0.27785686       1.51234395
Si      -2.77995552      -0.36374106      -1.32569103
Si      -0.85585970       1.00083300       0.07537678
Si      -3.31500474       0.57677068      -0.65331459
Si       2.55794029       2.82454770       0.26816297
Si       2.69611181       1.59510550       0.25027648
Si      -3.91641150      -0.63958107      -0.47408865
Si       1.34851234       0.95158534       1.53023044
Si      -3.78188770       0.12824002      -0.66067890
Si       2.00465461       0.26542266       0.45663616
Si       2.24349132       1.16960981       0.93846513
14
Lattice="5.907795566423579 0.8288324268715779 1.3415038041981613 -0.2163090573655544 1.0984697555116183 0.38632581333427884 -5.9971030435767005 -0.9730635158897408 -1.1575951743016235" Properties=species:S:1:pos:R:3 unique_starting_index=10 config_type=initial n_minim_iter=13 stress="1.1474515125668425e+18 9883182492094162.0 -6.770646141583196e+17 9883182492094162.0 2.4926645882716943e+18 -3.771339852733002e+16 -6.770646141583196e+17 -3.771339852733002e+16 2.194154940530657e+18" pbc="T T T"
Si       0.99899126       0.75005869       1.55033003
Si      -0.84244576      -0.47032901      -0.02178722
Si       1.57186165      -0.22517987       0.86426783
Si       1.47919049      -0.31303046       1.52957553
Si      -2.77213316      -0.34976111      -1.32009867
Si      -0.84138866       1.01485768       0.06810995
Si      -3.34500355       0.62547745      -0.63403647
Si       2.52846160       2.78486131       0.24457681
Si       2.68500654       1.51821300       0.20700315
Si      -3.91783191      -0.59764084      -0.41896733
Si       1.32264554       0.95361785       1.56714919
Si      -3.76310556       0.16910599      -0.69230512
Si       2.01256047       0.22706785       0.45610117
Si       2.21140067       1.14629324       0.93172536
14
Lattice="5.923683539068614 0.8453612058035855 1.3328068923144623 -0.2134324847359026 1.0982515624859517 0.3868001768598787 -6.013938073340309 -0.9897244015856511 -1.149554809930256" Properties=species:S:1:pos:R:3 unique_starting_index=10 config_type=initial n_minim_iter=14 stress="1.171849129709914e+18 1.6670468439100622e+16 -6.704299988394669e+17 1.6670468439100622e+16 2.5030755115125417e+18 -3.5183831937215724e+16 -6.704299988394669e+17 -3.5183831937215724e+16 2.2013903287840653e+18" pbc="T T T"
Si       1.01105167       0.76667243       1.52754911
Si      -0.85007241      -0.48288301      -0.01916137
Si       1.58125348      -0.23279625       0.84632409
Si       1.48626123      -0.32386048       1.53760303
Si      -2.78742872      -0.37086885      -1.29577258
Si      -0.83605011       1.02304978       0.06768582
Si      -3.35763053       0.62859983      -0.61454756
Si       2.53786731       2.80764002       0.23052849
Si       2.70472189       1.51315437       0.21098023
Si      -3.94845164      -0.60644215      -0.37445622
Si       1.31940666       0.97062518       1.55715129
Si      -3.75160895       0.15688452      -0.72657414
Si       2.02228831       0.22521365       0.45444567
Si       2.21527271       1.16031433       0.92688568
14
Lattice="5.924642140567184 0.8246186633192819 1.3418845246172726 -0.21739930757495654 1.0960954786685135 0.38771377958491515 -6.014075716444486 -0.9680967378780748 -1.1587881243030391" Properties=species:S:1:pos:R:3 unique_starting_index=10 config_type=initial n_minim_iter=15 stress="1.189026180832486e+18 1.048892218276728e+16 -6.628278022562925e+17 1.048892218276728e+16 2.5159729824535895e+18 -3.820415276537334e+16 -6.628278022562925e+17 -3.820415276537334e+16 2.215124608248615e+18" pbc="T T T"
Si       1.01145302       0.77891822       1.51534117
Si      -0.84558838      -0.47339742      -0.02324334
Si       1.58459574      -0.23946016       0.84485785
Si       1.48008969      -0.34360522       1.53387678
Si      -2.78981339      -0.37821838      -1.28538236
Si      -0.84333842       1.01757533       0.07010575
Si      -3.36295611       0.64015999      -0.61489905
Si       2.53822634       2.80849727       0.24258393
Si       2.70336407       1.49284518       0.21523283
Si      -3.97177556      -0.59016673      -0.34333516
Si       1.31495196       0.97204687       1.56122787
Si      -3.73122696       0.16624790      -0.76859056
Si       2.02159770       0.21095409       0.45253881
Si       2.21411764       1.15784249       0.93620812
14
Lattice="5.920773730792036 0.8139347551070901 1.3459916135154861 -0.22002110140153178 1.0986849046092417 0.3877479550060415 -6.009571577192148 -0.9575012458232602 -1.163249132709792" Properties=species:S:1:pos:R:3 unique_starting_index=10 config_type=initial n_minim_iter=16 stress="1.200286471827291e+18 7057838796967325.0 -6.587895879809385e+17 7057838796967325.0 2.5263377615992064e+18 -3.938357071841994e+16 -6.587895879809385e+17 -3.938357071841994e+16 2.2240090203257728e+18" pbc="T T T"
Si       1.01409590       0.79928238       1.51408452
Si      -0.84139972      -0.46807878      -0.02777765
Si       1.58357776      -0.23710615       0.85709553
Si       1.48510673      -0.35858661       1.52909621
Si      -2.79250192      -0.39410213      -1.28565774
Si      -0.84820846       1.01682553       0.07346195
Si      -3.36198379       0.64228640      -0.62866875
Si       2.52603772       2.81995301       0.25032767
Si       2.70822473       1.48448192       0.20636172
Si      -3.99134170      -0.58379732      -0.31036844
Si       1.30291972       0.97688448       1.57306216
Si      -3.70783806       0.17504282      -0.80719639
Si       2.02333869       0.19407875       0.44725340
Si       2.20782686       1.16860275       0.94442252
14
Lattice="5.911856503423551 0.8045502448544825 1.3549843777531976 -0.22254776765195147 1.1037320604144203 0.38761123112714624 -5.999724732986384 -0.9485618985485421 -1.1728276519477758" Properties=species:S:1:pos:R:3 unique_starting_index=10 config_type=initial n_minim_iter=17 stress="1.210234633580181e+18 1069878520117061.9 -6.549051628984457e+17 1069878520117061.9 2.542213484121214e+18 -3.611761352441486e+16 -6.549051628984457e+17 -3.611761352441486e+16 2.2311327382613827e+18" pbc="T T T"
Si       1.01942088       0.82446845       1.51555017
Si      -0.83590920      -0.46162332      -0.03403592
Si       1.58486523      -0.23721594       0.86993880
Si       1.49114971      -0.37717278       1.52327591
Si      -2.79609817      -0.41382445      -1.29035276
Si      -0.85289986       1.01627898       0.07707662
Si      -3.36154253       0.64785994      -0.64474138
Si       2.50934996       2.84011074       0.26236040
Si       2.71158537       1.47952740       0.20324752
Si      -4.00841559      -0.58009594      -0.28360664
Si       1.28891430       0.98341056       1.58238878
Si      -3.68011821       0.18618970      -0.84618032
Si       2.02407311       0.17545717       0.44114602
Si       2.19897433       1.18374873       0.95687905
14
Lattice="5.926555731431808 0.7922327730904399 1.327718044338401 -0.22383789428607023 1.0883667102316177 0.3904363065042477 -6.016043407912251 -0.9339293012346059 -1.1425125581439375" Properties=species:S:1:pos:R:3 unique_starting_index=10 config_type=initial n_minim_iter=18 stress="1.221835682286336e+18 3676778365509981.0 -6.574920865693445e+17 3676778365509981.0 2.5335480483940106e+18 -4.5184287751004824e+16 -6.574920865693445e+17 -4.5184287751004824e+16 2.2395960033234337e+18" pbc="T T T"
Si       1.01989163       0.84342803       1.51809542
Si      -0.83625428      -0.45888963      -0.02658758
Si       1.57717369      -0.22139623       0.88578549
Si       1.49341486      -0.38838232       1.52000809
Si      -2.80364050      -0.43775598      -1.27938947
Si      -0.85800691       1.00625820       0.08008804
Si      -3.36092255       0.62706828      -0.64707954
Si       2.51504179       2.81635038       0.25164672
Si       2.72002491       1.46160145       0.19035730
Si      -4.03620681      -0.57496487      -0.24172841
Si       1.28843174       0.96636661       1.58129751
Si      -3.67409779       0.18840415      -0.84728368
Si       2.03693384       0.15104660       0.42172078
Si       2.19536070       1.18855475       0.95949773
14
Lattice="5.922573703830498 0.7853733792186468 1.3303072159468738 -0.22558343013489301 1.0893734234171726 0.3917637971987701 -6.011677239264639 -0.9268329280422186 -1.1453981227112489" Properties=species:S:1:pos:R:3 unique_starting_index=10 config_type=initial n_minim_iter=19 stress="1.2293484425882816e+18 -1854062252819482.2 -6.572151793444525e+17 -1854062252819482.2 2.541548747973784e+18 -3.90842783152735e+16 -6.572151793444525e+17 -3.90842783152735e+16 2.2446016892211328e+18" pbc="T T T"
Si       1.01297887       0.87257262       1.50930101
Si      -0.83840265      -0.45451260      -0.02532148
Si       1.57193200      -0.21527742       0.88908389
Si       1.50562139      -0.40417777       1.51521977
Si      -2.79646517      -0.46407522      -1.27069132
Si      -0.85598012       1.00446955       0.07902207
Si      -3.35541830       0.62377482      -0.65047420
Si       2.49698612       2.82888152       0.26055184
Si       2.70623894       1.46562394       0.19118667
Si      -4.03244306      -0.57142326      -0.23098694
Si       1.29636857       0.95907981       1.58458494
Si      -3.67361694       0.19454729      -0.86071059
Si       2.04587676       0.13359635       0.41399740
Si       2.18231418       1.20173398       0.97001041
14
Lattice="5.919737485599805 0.8036353645353139 1.3294310643276495 -0.22237607961738745 1.0938132994830512 0.39121020743833756 -6.009177256996149 -0.9461004296070973 -1.1449463411193326" Properties=species:S:1:pos:R:3 unique_starting_index=10 config_type=initial n_minim_iter=20 stress="1.2294278895214223e+18 4058243497895455.5 -6.534701645884454e+17 4058243497895455.5 2.5392845055391293e+18 -3.4817652932472852e+16 -6.534701645884454e+17 -3.4817652932472852e+16 2.2410410394025928e+18" pbc="T T T"
Si       1.02702092       0.90369767       1.49394129
Si      -0.83695822      -0.46476522      -0.02678128
Si       1.57829747      -0.20254111       0.89056609
Si       1.50224059      -0.41062109       1.50775434
Si      -2.80789701      -0.49794413      -1.25616431
Si      -0.85447810       1.01298382       0.08007353
Si      -3.35917356       0.60829465      -0.65278912
Si       2.50368450       2.85628836       0.26617918
Si       2.70281083       1.48981382       0.18179845
Si      -4.02540839      -0.57576072      -0.22054139
Si       1.30311426       0.95585345       1.59213507
Si      -3.67520519       0.17787890      -0.87111270
Si       2.04349863       0.13477479       0.40616162
Si       2.18480254       1.21707918       0.97656170
14
Lattice="5.910693684034352 0.8012792456889445 1.3363024480477335 -0.22310931740587459 1.0964798191812544 0.3919175489156381 -5.999625927422195 -0.9439307211987674 -1.1520344663142172" Properties=species:S:1:pos:R:3 unique_starting_index=10 config_type=initial n_minim_iter=21 stress="1.2223442260026028e+18 2713327482150845.0 -6.533462101909944e+17 2713327482150845.0 2.5389445092763863e+18 -3.2084013299548136e+16 -6.533462101909944e+17 -3.2084013299548136e+16 2.2420139073623631e+18" pbc="T T T"
Si       1.04091160       0.92720830       1.47771086
Si      -0.83497563      -0.46747076      -0.02784990
Si       1.57604674      -0.19375486       0.88596348
Si       1.50061684      -0.41680838       1.50287726
Si      -2.81931537      -0.51914546      -1.24144633
Si      -0.85449590       1.01818508       0.07984644
Si      -3.35445051       0.60181770      -0.64969895
Si       2.49749599       2.86528176       0.27733928
Si       2.70279528       1.49640079       0.17289801
Si      -4.02018993      -0.56322867      -0.22614074
Si       1.29531756       0.95207259       1.60731853
Si      -3.66890753       0.17001227      -0.87389719
Si       2.04987998       0.13118643       0.41226179
Si       2.17134218       1.22080713       0.97603720
