1
Lattice="2.638202484506155 1.0605292291372041e-17 6.210842525079227e-51 1.3191012422530775 2.284750371909552 -5.574952478909643e-51 -1.9021641919730102e-50 6.465884782423225e-50 2.4610570234346136" Properties=species:S:1:pos:R:3 cutoff=-1.0 nneightol=1.2 n_minim_iter=1 energy=-162.83433764757154 free_energy=-162.83433764757154 pbc="T T T"
Si       0.00000000       0.00000000       0.00000000
