2
Lattice="2.5219226997780675 8.937828894365629e-17 2.5219226997780675 2.5219226997780675 2.5219226997780675 9.554906731926832e-17 1.105790699184386e-16 2.5219226997780675 2.5219226997780675" Properties=species:S:1:pos:R:3 n_minim_iter=1 energy=-325.5893634970907 free_energy=-325.5893634970907 pbc="T T T"
Si       0.00000000       0.00000000       0.00000000
Si       1.26096135       1.26096135       1.26096135
