1
Lattice="4.045719849358419 0.6333475803468969 -3.9712942760395017e-10 0.9118323021489316 3.992184879208594 -8.498935475264105e-10 -2.47877607559924 -2.3127662293240316 2.2969022165863073" Properties=species:S:1:pos:R:3:spacegroup_kinds:I:1 spacegroup="P 1" unit_cell=conventional occupancy="_JSON {\"0\": {\"In\": 1}}" n_minim_iter=6 pbc="T T T"
In       0.00000000       0.00000000       0.00000000        0
