65
Lattice="10.981539187727403 0.0 0.0 0.0 10.981539187727403 0.0 0.0 0.0 10.981539187727403" Properties=species:S:1:pos:R:3:forces:R:3 cutoff=-1.0 nneightol=1.2 Zs=14 interstitial_position="mean 4 5 6 7" bulk_struct_test=bulk_Si_diamond supercell_a1_in_bulk_lattice_coords="2 2 -2" n_minim_iter=0 pbc="T T T"
Si      -0.05921974      -0.05921974      -0.05921974       0.00210566       0.00210566       0.00210566
Si       2.74538479       2.74538479      -0.04478483       0.00000000       0.00000000      -0.00133013
Si       2.74538479      -0.04478483       2.74538479       0.00000000      -0.00133012       0.00000000
Si      -0.04478483       2.74538480       2.74538480      -0.00133013       0.00000000      -0.00000000
Si       1.31186997       1.31186997       1.31186997      -0.00055809      -0.00055809      -0.00055809
Si       4.17889962       4.17889962       1.31186997       0.00055809       0.00055809      -0.00055809
Si       4.17889962       1.31186997       4.17889962       0.00055809      -0.00055809       0.00055809
Si       1.31186997       4.17889962       4.17889962      -0.00055809       0.00055809       0.00055809
Si      -0.00557536      -0.00557536       5.49634495       0.00238574       0.00238574      -0.00238574
Si       2.74538480       2.74538480       5.53555442      -0.00000000      -0.00000000       0.00133013
Si       2.74538479      -0.00133429       8.23615439      -0.00000000       0.00089100       0.00000000
Si      -0.00133429       2.74538480       8.23615439       0.00089099      -0.00000000       0.00000000
Si       1.35915616       1.35915616       6.87494385       0.00130493       0.00130493      -0.00027915
Si       4.13161343       4.13161343       6.87494385      -0.00130493      -0.00130493      -0.00027915
Si       4.13161343       1.35915616       9.59736493      -0.00130493       0.00130493       0.00027915
Si       1.35915616       4.13161343       9.59736493       0.00130493      -0.00130493       0.00027915
Si      -0.00557536       5.49634495      -0.00557536       0.00238574      -0.00238574       0.00238574
Si       2.74538479       8.23615439      -0.00133429       0.00000000      -0.00000000       0.00089099
Si       2.74538480       5.53555442       2.74538479       0.00000000       0.00133013       0.00000000
Si      -0.00133429       8.23615439       2.74538480       0.00089099       0.00000000      -0.00000000
Si       1.35915616       6.87494385       1.35915616       0.00130493      -0.00027915       0.00130493
Si       4.13161343       9.59736493       1.35915616      -0.00130493       0.00027915       0.00130493
Si       4.13161343       6.87494385       4.13161343      -0.00130493      -0.00027915      -0.00130493
Si       1.35915616       9.59736493       4.13161343       0.00130493       0.00027915      -0.00130493
Si      -0.05921973       5.54998933       5.54998933       0.00210566      -0.00210566      -0.00210566
Si       2.74538479       8.23615439       5.49210388       0.00000000       0.00000000      -0.00089099
Si       2.74538480       5.49210388       8.23615439       0.00000000      -0.00089099       0.00000000
Si      -0.00039555       8.23615439       8.23615439       0.00601763       0.00000000       0.00000000
Si       1.37976531       6.87617343       6.87617343       0.00682556       0.00157336       0.00157336
Si       4.11100428       9.59613535       6.87617343      -0.00682556      -0.00157336       0.00157336
Si       4.11100428       6.87617343       9.59613535      -0.00682556       0.00157336      -0.00157336
Si       1.37976531       9.59613535       9.59613535       0.00682556      -0.00157336      -0.00157336
Si       5.49634495      -0.00557536      -0.00557536      -0.00238574       0.00238574       0.00238574
Si       8.23615439       2.74538479      -0.00133429       0.00000000       0.00000000       0.00089099
Si       8.23615439      -0.00133429       2.74538480       0.00000000       0.00089099      -0.00000000
Si       5.53555442       2.74538480       2.74538480       0.00133013      -0.00000000      -0.00000000
Si       6.87494385       1.35915616       1.35915616      -0.00027915       0.00130493       0.00130493
Si       9.59736493       4.13161343       1.35915616       0.00027915      -0.00130493       0.00130493
Si       9.59736493       1.35915616       4.13161343       0.00027915       0.00130493      -0.00130493
Si       6.87494385       4.13161343       4.13161343      -0.00027915      -0.00130493      -0.00130493
Si       5.54998932      -0.05921973       5.54998933      -0.00210566       0.00210566      -0.00210566
Si       8.23615439       2.74538479       5.49210388       0.00000000       0.00000000      -0.00089100
Si       8.23615439      -0.00039555       8.23615439      -0.00000000       0.00601763      -0.00000000
Si       5.49210388       2.74538480       8.23615439      -0.00089100       0.00000000       0.00000000
Si       6.87617343       1.37976531       6.87617343       0.00157336       0.00682556       0.00157336
Si       9.59613535       4.11100428       6.87617343      -0.00157336      -0.00682556       0.00157336
Si       9.59613535       1.37976531       9.59613535      -0.00157336       0.00682556      -0.00157336
Si       6.87617343       4.11100428       9.59613535       0.00157336      -0.00682556      -0.00157336
Si       5.54998932       5.54998932      -0.05921973      -0.00210566      -0.00210566       0.00210566
Si       8.23615439       8.23615439      -0.00039555       0.00000000       0.00000000       0.00601763
Si       8.23615439       5.49210388       2.74538480       0.00000000      -0.00089100      -0.00000000
Si       5.49210388       8.23615439       2.74538479      -0.00089100       0.00000000       0.00000000
Si       6.87617343       6.87617343       1.37976531       0.00157336       0.00157336       0.00682556
Si       9.59613535       9.59613535       1.37976531      -0.00157336      -0.00157336       0.00682556
Si       9.59613535       6.87617343       4.11100428      -0.00157336       0.00157336      -0.00682556
Si       6.87617343       9.59613535       4.11100428       0.00157336      -0.00157336      -0.00682556
Si       5.49634495       5.49634495       5.49634495      -0.00238574      -0.00238575      -0.00238574
Si       8.23615439       8.23615439       5.49116514      -0.00000000       0.00000000      -0.00601763
Si       8.23615439       5.49116514       8.23615439      -0.00000000      -0.00601763       0.00000000
Si       5.49116514       8.23615439       8.23615439      -0.00601763       0.00000000      -0.00000000
Si       6.86539792       6.86539792       6.86539792      -0.00302788      -0.00302788      -0.00302787
Si       9.60691085       9.60691085       6.86539792       0.00302787       0.00302787      -0.00302788
Si       9.60691085       6.86539792       9.60691085       0.00302787      -0.00302788       0.00302787
Si       6.86539792       9.60691085       9.60691085      -0.00302788       0.00302787       0.00302788
Si       2.74538479       2.74538479       2.74538479       0.00000000       0.00000000       0.00000000
