63
Lattice="10.981539187727403 0.0 0.0 0.0 10.981539187727403 0.0 0.0 0.0 10.981539187727403" Properties=species:S:1:pos:R:3:forces:R:3 cutoff=-1.0 nneightol=1.2 vacancies=0 relax_radial_0=0.13 relax_symm_break_0=0.01 bulk_struct_test=bulk_Si_diamond supercell_a1_in_bulk_lattice_coords="2 2 -2" n_minim_iter=0 pbc="T T T"
Si       2.70701502       2.70708752       0.01031491      -0.00262403      -0.00277002       0.00125898
Si       2.70766075       0.00971175       2.70783632      -0.00298066       0.00220016      -0.00321375
Si       0.00917666       2.70826109       2.70836331       0.00314041      -0.00337132      -0.00344833
Si       1.26862785       1.27000910       1.27163204      -0.00212009      -0.00297922      -0.00396868
Si       4.10933970       4.10926106       1.36804311      -0.00009568      -0.00007746      -0.00137622
Si       4.10912714       1.36872074       4.10897134      -0.00002997      -0.00160764      -0.00006540
Si       1.36937071       4.10879701       4.10871193      -0.00192627       0.00001970      -0.00003548
Si       0.00050260       0.00025068       5.49077526       0.00125829       0.00062844       0.00003643
Si       2.74309550       2.74277194       5.48915165       0.00195744       0.00155080       0.00379771
Si       2.70491298      -0.01027362       8.27646649      -0.00176004      -0.00097909       0.00206652
Si      -0.01026299       2.70272821       8.27872336      -0.00071486      -0.00097560       0.00113394
Si       1.37133967       1.37126725       6.87408692       0.00104478       0.00128636      -0.00188012
Si       4.11746951       4.11686099       6.86526377      -0.00092177      -0.00061633       0.00045530
Si       4.10780020       1.37083631       9.61077813       0.00206229       0.00153895      -0.00171735
Si       1.37111454       4.10760669       9.61057149       0.00120012       0.00195564      -0.00160894
Si       0.00050290       5.49089865       0.00000406       0.00125862       0.00045287      -0.00002705
Si       2.70563429       8.27561679      -0.00962581      -0.00215774       0.00252748      -0.00194535
Si       2.74356399       5.48882290       2.74287891       0.00167726       0.00391126       0.00105151
Si      -0.00954916       8.28010914       2.70131766      -0.00139705       0.00072860      -0.00058987
Si       1.37170605       6.87355004       1.37155289       0.00074035      -0.00105011       0.00119818
Si       4.10842948       9.61074268       1.37087617       0.00136955      -0.00171060       0.00157420
Si       4.11782249       6.86555556       4.11658815      -0.00112985       0.00039719      -0.00062817
Si       1.37145815       9.61031396       4.10809653       0.00092472      -0.00151665       0.00111202
Si       0.00048742       5.49235003       5.49074894       0.00229219      -0.00124990       0.00003893
Si       2.74329595       8.23931360       5.49316754       0.00182985      -0.00087143      -0.00383459
Si       2.74284240       5.49286051       8.23938491       0.00211274      -0.00374062      -0.00138921
Si       0.00855932       8.27452000       8.27464753       0.00375365       0.00305409       0.00299910
Si       1.36941365       6.87438528       6.87428269      -0.00230436      -0.00064399      -0.00071223
Si       4.10809805       9.61416807       6.87363091       0.00049647       0.00142308      -0.00055967
Si       4.10792155       6.87390333       9.61346201       0.00059520      -0.00057330       0.00167804
Si       1.26272895       9.71416908       9.71596469       0.00061576       0.00221048       0.00112392
Si       5.49102832       0.00025085       0.00000441       0.00091238       0.00062803      -0.00002349
Si       8.27695919       2.70421827      -0.00896163       0.00210953      -0.00182258      -0.00257895
Si       8.27919502      -0.00889560       2.70208452       0.00124283      -0.00230963      -0.00102781
Si       5.48849312       2.74369372       2.74334209       0.00400687       0.00108653       0.00081177
Si       6.87299841       1.37200297       1.37192272      -0.00027429       0.00066774       0.00088411
Si       9.61052252       4.10884003       1.37117870      -0.00161385       0.00060882       0.00133910
Si       9.61029906       1.37148333       4.10870103      -0.00152094       0.00102088       0.00044472
Si       6.86585463       4.11755946       4.11692559       0.00035733      -0.00106426      -0.00081588
Si       5.49393243       0.00024420       5.49074974      -0.00248873       0.00113817       0.00003760
Si       8.23955340       2.74312909       5.49394756      -0.00049110       0.00138154      -0.00395702
Si       8.27639378       0.00842567       8.27666788       0.00238858       0.00347173       0.00225524
Si       5.49337755       2.74224560       8.23965307      -0.00368361       0.00191627      -0.00155132
Si       6.87574260       1.36878272       6.87550565      -0.00130031      -0.00236525      -0.00138093
Si       9.61488225       4.10668703       6.87496387       0.00154933       0.00109950      -0.00117387
Si       9.71836371       1.25801285       9.72206264       0.00053298       0.00255473      -0.00166145
Si       6.87551749       4.10637262       9.61343877      -0.00127054       0.00128610       0.00203631
Si       5.49393319       5.49235080       0.00003018      -0.00249951      -0.00124943      -0.00008022
Si       8.27855117       8.27869844       0.00831816       0.00157883       0.00150169       0.00320651
Si       8.23984629       5.49446375       2.74248623      -0.00065647      -0.00404016       0.00124135
Si       5.49419516       8.23986888       2.74205579      -0.00385514      -0.00119136       0.00152738
Si       6.87704841       6.87691506       1.36811472      -0.00198727      -0.00201215      -0.00252002
Si       9.72459862       9.72650177       1.25340071      -0.00232997      -0.00344205       0.00441450
Si       9.61487741       6.87658293       4.10508716       0.00193351      -0.00185506       0.00181934
Si       6.87686027       9.61413647       4.10494470      -0.00193884       0.00220652       0.00191166
Si       5.49134224       5.49105600       5.49076508      -0.00059349      -0.00030269       0.00004710
Si       8.23941928       8.23901104       5.48681228      -0.00039077      -0.00064143       0.00419574
Si       8.23911679       5.48730584       8.23832928      -0.00025713       0.00412388      -0.00075061
Si       5.48775517       8.23841326       8.23803773       0.00407825      -0.00037761      -0.00064029
Si       6.86553346       6.86490028       6.86425148       0.00051515       0.00072462       0.00101021
Si       9.61021627       9.61013273       6.87227691      -0.00136170      -0.00123793       0.00012462
Si       9.60997016       6.87236892       9.60980175      -0.00124205       0.00027749      -0.00092774
Si       6.87242214       9.60961566       9.60953057       0.00038283      -0.00093450      -0.00074204
