4
Lattice="1.8427837773451048 -3.191795129725415 1.1110474457028746e-18 1.8427837773451052 3.191795129725415 -1.1110474457028368e-18 -6.24185158289431e-32 2.1106134417797226e-18 6.0633285556440555" Properties=species:S:1:pos:R:3 cutoff=-1.0 nneightol=1.2 n_minim_iter=1 energy=-652.230314842118 free_energy=-652.230314842118 pbc="T T T"
Si       1.84278378       1.06393171       0.38271242
Si       1.84278378      -1.06393171       3.41437670
Si       1.84278378       1.06393171       2.64895186
Si       1.84278378      -1.06393171      -0.38271242
4
Lattice="1.8414831116824362 -3.1895423107140126 2.0788713674127605e-18 1.8414831116824366 3.1895423107140126 -2.078871367412766e-18 -6.399714379112777e-32 2.7356899645794067e-19 6.071896810578257" Properties=species:S:1:pos:R:3 cutoff=-1.0 nneightol=1.2 n_minim_iter=2 stress="-0.09867885209787416 1.7456064476116423e-16 4.5097042106112085e-17 1.7456064476116423e-16 -0.09867885209787476 -3.469923977217655e-17 4.5097042106112085e-17 -3.469923977217655e-17 -0.0977951352600148" pbc="T T T"
Si       1.84148311       1.06318077       0.38397615
Si       1.84148311      -1.06318077       3.41992456
Si       1.84148311       1.06318077       2.65197225
Si       1.84148311      -1.06318077      -0.38397615
4
Lattice="1.8405730662954252 -3.1879660658665165 4.2798140218275835e-18 1.8405730662954256 3.1879660658665165 -4.2798140218276105e-18 -6.853060211849372e-32 -3.907263634167043e-18 6.077902622394913" Properties=species:S:1:pos:R:3 cutoff=-1.0 nneightol=1.2 n_minim_iter=3 stress="-0.09831953905422869 1.2864947144958e-16 3.8244626513070696e-17 1.2864947144958e-16 -0.09831953905422819 -9.214803747770153e-17 3.8244626513070696e-17 -9.214803747770153e-17 -0.09775447459637078" pbc="T T T"
Si       1.84057307       1.06265536       0.38652680
Si       1.84057307      -1.06265536       3.42547811
Si       1.84057307       1.06265536       2.65242451
Si       1.84057307      -1.06265536      -0.38652680
4
Lattice="1.840399695282967 -3.187665778464379 1.481605192249663e-17 1.8403996952829675 3.187665778464379 -1.4816051922496657e-17 -6.732892383236849e-32 -2.3921104525601498e-17 6.079047788595803" Properties=species:S:1:pos:R:3 cutoff=-1.0 nneightol=1.2 n_minim_iter=4 stress="-0.09804488134763224 1.675034431593341e-17 4.792434756375569e-17 1.675034431593341e-17 -0.09804488134763205 -8.395103602489186e-17 4.792434756375569e-17 -8.395103602489186e-17 -0.0980362923691608" pbc="T T T"
Si       1.84039970       1.06255526       0.38735555
Si       1.84039970      -1.06255526       3.42687945
Si       1.84039970       1.06255526       2.65216834
Si       1.84039970      -1.06255526      -0.38735555
