2
Lattice="2.9510681797375566 -9.385157781788516e-16 5.028519908013603e-41 -1.4755340898687774 2.5557000119526263 2.5493414475898276e-25 -1.9405756398654395e-40 -4.662685518205089e-25 4.674315182799063" Properties=species:S:1:pos:R:3 n_minim_iter=1 energy=-3187.201030289553 free_energy=-3187.201030289553 pbc="T T T"
Ti       0.00000000       0.00000000       0.00000000
Ti       0.00000000       1.70380001       2.33715759
