2
Lattice="2.5891564869450527 -8.054831527043705e-16 3.4333743269728403e-41 -1.294578243472526 2.242275292067688 2.236696526290386e-25 -1.8338512680556583e-40 -4.1299670830075557e-25 4.1402680419231945" Properties=species:S:1:pos:R:3 n_minim_iter=1 energy=-3185.576766202845 free_energy=-3185.576766202845 pbc="T T T"
Ti       0.00000000       0.00000000       0.00000000
Ti       0.00000000       1.49485019       2.07013402
2
Lattice="2.5630457518933425 -8.12281014473338e-16 2.7599582603635746e-41 -1.281522875946671 2.219662732201422 2.2141402263202918e-25 -1.9559178155696395e-40 -4.214542835954926e-25 4.225054743611526" Properties=species:S:1:pos:R:3 n_minim_iter=2 stress="-0.7676178377548871 6.561855001401081e-16 3.158240627282453e-18 6.561855001401081e-16 -0.7676178377548863 8.083000190423395e-18 3.158240627282453e-18 8.083000190423395e-18 -0.7881355211069806" pbc="T T T"
Ti       0.00000000      -0.00000000      -0.00000000
Ti       0.00000000       1.47977515       2.11252737
2
Lattice="2.5587902359908736 -8.388303098830137e-16 -6.586817119617481e-43 -1.2793951179954366 2.2159773473236757 2.210464010655221e-25 -2.3603213821346433e-40 -4.228572878490843e-25 4.2391197798626115" Properties=species:S:1:pos:R:3 n_minim_iter=3 stress="-0.753681138661356 3.2597526459881353e-16 -1.7657505320042885e-18 3.2597526459881353e-16 -0.7536811386613561 -1.890844687402615e-17 -1.7657505320042885e-18 -1.890844687402615e-17 -0.7548635738879378" pbc="T T T"
Ti       0.00000000      -0.00000000      -0.00000000
Ti      -0.00000000       1.47731823       2.11955989
