2
Lattice="2.6812233801263856 -8.526981736133353e-16 4.568713538158938e-41 -1.3406116900631921 2.322007560410231 2.3162304212879817e-25 -2.0709193278543352e-40 -4.236330936515324e-25 4.246897188026054" Properties=species:S:1:pos:R:3 n_minim_iter=1 energy=-3186.7524490709307 free_energy=-3186.7524490709307 pbc="T T T"
Ti       0.00000000       0.00000000       0.00000000
Ti       0.00000000       1.54800504       2.12344859
2
Lattice="2.6889208932448088 -8.523140042812067e-16 4.458969827625446e-41 -1.3444604466224037 2.3286738023167497 2.322880077629675e-25 -2.08168794509668e-40 -4.212111155107216e-25 4.222616997668378" Properties=species:S:1:pos:R:3 n_minim_iter=2 stress="-0.22470856572250722 9.521577414446535e-17 8.462889465014137e-19 9.521577414446535e-17 -0.22470856572250822 -3.644219051567657e-18 8.462889465014137e-19 -3.644219051567657e-18 -0.22274445499262532" pbc="T T T"
Ti       0.00000000       0.00000000       0.00000000
Ti       0.00000000       1.55244920       2.11130850
