2
Lattice="2.833033963770692 1.9072079230050364e-17 2.833033963770692 2.833033963770692 2.833033963770692 1.3325486640858868e-16 -2.1464871606154981e-16 2.833033963770692 2.833033963770692" Properties=species:S:1:pos:R:3 n_minim_iter=1 energy=-326.2295863486498 free_energy=-326.2295863486498 pbc="T T T"
Si       0.00000000      -0.00000000      -0.00000000
Si       1.41651698       1.41651698       1.41651698
