4
Lattice="4.308869380063768 0.0 0.0 0.0 4.308869380063768 0.0 0.0 0.0 4.308869380063768" Properties=species:S:1:pos:R:3 n_minim_iter=1 stress="0.07444103116068428 5.166166669465073e-19 1.1845705008030844e-19 5.166166669465073e-19 0.07444103116068428 -7.523035482552495e-19 1.1845705008030844e-19 -7.523035482552495e-19 0.07444103116068426" pbc="T T T"
Al       0.00000000       0.00000000       0.00000000
Al       2.15443469       2.15443469       0.00000000
Al       2.15443469       0.00000000       2.15443469
Al       0.00000000       2.15443469       2.15443469
