2
Lattice="2.562326210158549 4.668645138540129e-68 -6.291102340041546e-36 -6.623823087900596e-53 2.562326210158549 -2.697841267269693e-17 8.874589563946914e-36 3.8057295306276703e-17 3.614564223406122" Properties=species:S:1:pos:R:3:tags:I:1 spacegroup="P 1" unit_cell=conventional n_minim_iter=1 energy=-1703.2910983982745 free_energy=-1703.2910983982745 pbc="T T T"
Ti       1.28116311       1.28116311       1.80728212        0
Al       0.00000000       0.00000000       0.00000000        1
2
Lattice="2.3791429542770524 7.038385536648292e-52 -1.2525148032719816e-35 9.853005853085351e-52 2.3791429542770524 7.467719471189202e-17 9.622024924089677e-37 1.851065142863154e-16 4.1926026804435566" Properties=species:S:1:pos:R:3:tags:I:1 spacegroup="P 1" unit_cell=conventional n_minim_iter=2 stress="-0.3553308129016267 -1.4652508306387955e-17 -1.1026178733031095e-18 -1.4652508306387955e-17 -0.35533081290162777 -3.6658645100779e-17 -1.1026178733031095e-18 -3.6658645100779e-17 -0.3580675424749747" pbc="T T T"
Ti       1.18957148       1.18957148       2.09630135        0
Al      -0.00000000       0.00000000       0.00000001        1
