2
Lattice="5.001345101454752 4.2039234163885023e-17 2.5427716417018978e-15 4.203923416389058e-17 5.001345101454752 -4.340094378596545e-15 2.500672550727375 2.5006725507273773 1.4427590855956354" Properties=species:S:1:pos:R:3 cutoff=-1.0 nneightol=1.2 n_minim_iter=1 energy=-325.5283354574206 free_energy=-325.5283354574206 pbc="T T T"
Si      -0.00000000      -1.25033627      -0.36068977
Si      -0.00000000       1.25033628       0.36068977
