2
Lattice="4.687446105982473 3.7452947797157693e-17 2.0519361917853824e-16 3.7452947797158304e-17 4.687446105982473 -2.6544478327315824e-16 2.3437230529912365 2.3437230529912365 1.2930006834279533" Properties=species:S:1:pos:R:3 cutoff=-1.0 nneightol=1.2 n_minim_iter=1 energy=-325.64439384356365 free_energy=-325.64439384356365 pbc="T T T"
Si      -0.00000000      -1.17186153      -0.32325017
Si      -0.00000000       1.17186153       0.32325017
