2
Lattice="4.536305100595391 4.057274170757564e-17 -1.9282611285439222e-16 4.057274170757631e-17 4.536305100595391 3.4830366117211935e-16 2.2681525502976956 2.2681525502976956 1.2313429615897544" Properties=species:S:1:pos:R:3 cutoff=-1.0 nneightol=1.2 n_minim_iter=1 energy=-325.2689398205048 free_energy=-325.2689398205048 pbc="T T T"
Si      -0.00000000      -1.13407627      -0.30783574
Si      -0.00000000       1.13407628       0.30783574
