1
Lattice="4.048089278848549 0.7092744336626183 -4.1228828207355467e-10 0.987741080284375 3.9892937457768913 -8.544249971596699e-10 -2.51791517941565 -2.3492840892766935 2.2430034438037842" Properties=species:S:1:pos:R:3:spacegroup_kinds:I:1 spacegroup="P 1" unit_cell=conventional occupancy="_JSON {\"0\": {\"In\": 1}}" n_minim_iter=5 pbc="T T T"
In       0.00000000       0.00000000       0.00000000        0
