2
Lattice="2.575150454657234 9.064405405152457e-17 2.575150454657234 2.575150454657234 2.575150454657234 1.6222717774984908e-16 1.0101180862291941e-16 2.575150454657234 2.575150454657234" Properties=species:S:1:pos:R:3 n_minim_iter=1 energy=-325.958257047054 free_energy=-325.958257047054 pbc="T T T"
Si       0.00000000       0.00000000       0.00000000
Si       1.28757523       1.28757523       1.28757523
