18
Lattice="0.0 -2.7456886709272843 2.7456886709272843 2.7456886709272843 -2.7456886709272843 0.0 22.07761061428806 22.07761061428806 22.07761061428806" Properties=species:S:1:pos:R:3:travel:I:3:map_shift:I:3:n_neighb:I:1:orig_index:I:1:forces:R:3 cutoff=2.0 nneightol=1.2 bulk_struct_test=bulk_Si_diamond supercell_a1_in_bulk_lattice_coords="1 -1 0" n_minim_iter=0 pbc="T T T"
Si       0.03767107       0.03767107       0.03767107        0        0        0        0        0        0       21        1       0.00052107       0.00052107       0.00052107
Si       1.40520198       1.40520198       1.40520198        0        0        0        0        0        0       21        2      -0.00125785      -0.00125785      -0.00125785
Si       2.77049313       0.02480446       2.77049313        0       -1        0        0        0        0       20        3       0.00062092       0.00062092       0.00062092
Si      -1.24296664      -3.98865531      -1.24296664        0       -1        1        0        0        0       20        4      -0.00044143      -0.00044143      -0.00044143
Si      -2.70140527       0.04428340      -2.70140527        1       -1        1        0        0        0       20        5       0.00132240       0.00132240       0.00132240
Si      -1.31844167       1.42724700      -1.31844167        1       -1        1        0        0        0       20        6      -0.00008750      -0.00008750      -0.00008750
Si       5.48784038       5.48784038       5.48784038        0        0        0        0        0        0       21        1      -0.00282034      -0.00282034      -0.00282034
Si       6.85363074       6.85363074       6.85363074        0        0        0        0        0        0       21        2       0.00075793       0.00075793       0.00075793
Si       8.21899561       5.47330694       8.21899561        0       -1        0        0        0        0       20        3       0.00097361       0.00097361       0.00097361
Si       4.13660341       1.39091474       4.13660341        0       -1        1        0        0        0       20        4      -0.00097361      -0.00097361      -0.00097361
Si       2.75627961       5.50196828       2.75627961        1       -1        1        0        0        0       20        5      -0.00075793      -0.00075793      -0.00075793
Si       4.12206997       6.86775864       4.12206997        1       -1        1        0        0        0       20        6       0.00282034       0.00282034       0.00282034
Si      10.92835202      10.92835202      10.92835202        0        0        0        0        0        0       21        1       0.00008750       0.00008750       0.00008750
Si      12.31131562      12.31131562      12.31131562        0        0        0        0        0        0       21        2      -0.00132240      -0.00132240      -0.00132240
Si      13.59856566      10.85287699      13.59856566        0       -1        0        0        0        0       20        3       0.00044143       0.00044143       0.00044143
Si       9.58510589       6.83941722       9.58510589        0       -1        1        0        0        0       20        4      -0.00062092      -0.00062092      -0.00062092
Si       8.20470837      10.95039704       8.20470837        1       -1        1        0        0        0       20        5       0.00125785       0.00125785       0.00125785
Si       9.57223928      12.31792795       9.57223928        1       -1        1        0        0        0       20        6      -0.00052107      -0.00052107      -0.00052107
