8
Lattice="5.7558434252422375 1.5689087028195284e-17 6.180657320482461e-49 -2.8779217126211187 4.984706626465416 -1.4958774912044915e-48 -5.01701219707582e-49 1.1124326506843503e-48 4.6721788915883185" Properties=species:S:1:pos:R:3:tags:I:1 spacegroup="P 1" unit_cell=conventional n_minim_iter=1 energy=-9788.751992782423 free_energy=-9788.751992782423 pbc="T T T"
Ti       2.87792172       3.31429536       1.16804472        0
Ti      -1.43129879       4.14950349       3.50413417        1
Ti       1.43129880       4.14950349       3.50413417        2
Ti       1.44662292       0.83521312       1.16804472        3
Ti       4.30922052       0.83521312       1.16804472        4
Ti       0.00000001       1.67042125       3.50413417        5
Al       0.00000001       3.32314274       1.16804472        6
Al       2.87792172       1.66157386       3.50413417        7
8
Lattice="5.72599238172275 -7.14579579989123e-17 6.1708510255019604e-49 -2.862996190861375 4.958854864448066 -1.4846529549167365e-48 -5.050259418313945e-49 1.132823586771013e-48 4.72102036769724" Properties=species:S:1:pos:R:3:tags:I:1 spacegroup="P 1" unit_cell=conventional n_minim_iter=2 stress="0.32923098930437095 -1.2418860680875289e-15 -8.334574128069707e-17 -1.2418860680875289e-15 0.3292309893043737 8.209623179115117e-17 -8.334574128069707e-17 8.209623179115117e-17 0.3277196203158571" pbc="T T T"
Ti       2.86299620       3.29718992       1.18025509        0
Ti      -1.42394784       4.12802488       3.54076527        1
Ti       1.42394785       4.12802488       3.54076527        2
Ti       1.43904835       0.83083992       1.18025509        3
Ti       4.28694404       0.83083992       1.18025509        4
Ti       0.00000000       1.66167487       3.54076527        5
Al       0.00000000       3.30590821       1.18025509        6
Al       2.86299620       1.65295658       3.54076527        7
8
Lattice="5.718318460392979 -4.003581494396639e-17 8.129966410249816e-49 -2.8591592301964894 4.952209053629841 -1.2352823580778173e-48 -5.043720222475772e-49 9.11802294912622e-49 4.733699986167707" Properties=species:S:1:pos:R:3:tags:I:1 spacegroup="P 1" unit_cell=conventional n_minim_iter=3 stress="0.3094268601553136 -4.783184445918789e-16 4.4461463128124254e-17 -4.783184445918789e-16 0.309426860155317 -5.632401152980446e-16 4.4461463128124254e-17 -5.632401152980446e-16 0.3083495535707006" pbc="T T T"
Ti       2.85915924       3.29813774       1.18342499        0
Ti      -1.42668716       4.12517587       3.55027499        1
Ti       1.42668717       4.12517587       3.55027499        2
Ti       1.43247207       0.82704309       1.18342499        3
Ti       4.28584640       0.82704309       1.18342499        4
Ti       0.00000000       1.65408123       3.55027499        5
Al       0.00000000       3.30147766       1.18342499        6
Al       2.85915924       1.65074131       3.55027499        7
