4
Lattice="1.9436474260142145 -3.3664960938570903 8.412978643984022e-35 1.9436474260142147 3.3664960938570903 -8.412978643984017e-35 -7.03027906777337e-50 1.597022402824626e-34 6.390566181641172" Properties=species:S:1:pos:R:3 cutoff=-1.0 nneightol=1.2 n_minim_iter=1 energy=-652.6410543007696 free_energy=-652.6410543007696 pbc="T T T"
Si       1.94364743       1.12216536       0.39867728
Si       1.94364743      -1.12216536       3.59396037
Si       1.94364743       1.12216536       2.79660581
Si       1.94364743      -1.12216536      -0.39867728
