2
Lattice="3.056479496348784 0.0 0.0 0.0 3.056479496348784 0.0 0.0 0.0 3.056479496348784" Properties=species:S:1:pos:R:3 Minim_Constant_Volume=F n_minim_iter=1 stress="-0.12172357465775085 4.609930223952591e-18 1.4611640124354211e-18 4.609930223952591e-18 -0.12172357465775085 5.923391137092689e-19 1.4611640124354211e-18 5.923391137092689e-19 -0.12172357465775112" pbc="T T T"
Ti       0.00000000       0.00000000       0.00000000
Ti       1.52823975       1.52823975       1.52823975
