2
Lattice="3.3872923388307434 0.0 0.0 0.0 3.3872923388307434 0.0 0.0 0.0 3.3872923388307434" Properties=species:S:1:pos:R:3 Minim_Constant_Volume=F n_minim_iter=1 stress="0.018594200448005783 2.2991995628850504e-18 -5.896596709644427e-19 2.2991995628850504e-18 0.01859420044800583 -1.3669364162521585e-18 -5.896596709644427e-19 -1.3669364162521585e-18 0.018594200448005877" pbc="T T T"
Ti       0.00000000       0.00000000       0.00000000
Ti       1.69364617       1.69364617       1.69364617
