2
Lattice="2.796303283158193 -2.5930163342694498e-68 1.2039648711714865e-35 -1.422571635079141e-52 2.796303283158193 3.304034718080179e-17 -1.7460175523453853e-35 -4.791587154626239e-17 4.055263347779032" Properties=species:S:1:pos:R:3:tags:I:1 spacegroup="P 1" unit_cell=conventional n_minim_iter=1 energy=-1704.283574069015 free_energy=-1704.283574069015 pbc="T T T"
Ti       1.39815164       1.39815164       2.02763168        0
Al       0.00000000       0.00000000       0.00000000        1
