2
Lattice="2.8100790345700686 -1.4019237564654536e-51 1.0697309153605274e-34 4.690263720312274e-53 2.8100790345700686 3.559508642746335e-17 -1.7834187984441422e-34 -5.934291077825616e-17 4.684867664759416" Properties=species:S:1:pos:R:3:tags:I:1 spacegroup="P 1" unit_cell=conventional n_minim_iter=1 energy=-1704.7520338389525 free_energy=-1704.7520338389525 pbc="T T T"
Ti       1.40503952       1.40503952       2.34243384        0
Al       0.00000000       0.00000000       0.00000001        1
2
Lattice="2.79378375163082 -1.3976229379748e-51 1.094154257930885e-34 5.9534544505939405e-53 2.79378375163082 3.6053859530253e-17 -1.7498097331587115e-34 -5.892821495232287e-17 4.739677835092552" Properties=species:S:1:pos:R:3:tags:I:1 spacegroup="P 1" unit_cell=conventional n_minim_iter=2 stress="-0.41427961023426046 -3.938901718207898e-18 2.6777892729139156e-18 -3.938901718207898e-18 -0.41427961023426063 7.083346224077081e-18 2.6777892729139156e-18 7.083346224077081e-18 -0.4300742942863982" pbc="T T T"
Ti       1.39689188       1.39689188       2.36983892        0
Al       0.00000000       0.00000000       0.00000001        1
2
Lattice="2.7924760716627732 -1.2600057068694569e-51 1.0985481308476808e-34 5.274852313081659e-53 2.7924760716627732 3.980110838883201e-17 -1.7434698260900822e-34 -5.271822959786751e-17 4.744117932567115" Properties=species:S:1:pos:R:3:tags:I:1 spacegroup="P 1" unit_cell=conventional n_minim_iter=3 stress="-0.4307535133978475 2.813501227291356e-18 -6.641811725648582e-18 2.813501227291356e-18 -0.4307535133978475 1.2978792024656772e-18 -6.641811725648582e-18 1.2978792024656772e-18 -0.4286163140619359" pbc="T T T"
Ti       1.39623804       1.39623804       2.37205897        0
Al       0.00000000       0.00000000       0.00000001        1
