2
Lattice="2.861356785000671 -1.2251452621736308e-67 1.2319740400755745e-35 -1.4556664953688142e-52 2.861356785000671 3.380900138907308e-17 -1.786637093416844e-35 -4.903059156132389e-17 4.149605432650642" Properties=species:S:1:pos:R:3:tags:I:1 spacegroup="P 1" unit_cell=conventional n_minim_iter=1 energy=-1704.1457519048577 free_energy=-1704.1457519048577 pbc="T T T"
Ti       1.43067839       1.43067839       2.07480272        0
Al       0.00000000       0.00000000       0.00000001        1
2
Lattice="2.770145161536046 -9.385930259206716e-52 9.992379928625647e-35 -7.763592693783285e-51 2.770145161536046 4.408041087458325e-17 -4.309033665019019e-34 -3.38535930168377e-17 4.427369570122619" Properties=species:S:1:pos:R:3:tags:I:1 spacegroup="P 1" unit_cell=conventional n_minim_iter=2 stress="-0.08961544525771192 1.0416206765927548e-17 -1.4231439756788949e-18 1.0416206765927548e-17 -0.08961544525771198 -1.5263800799059245e-18 -1.4231439756788949e-18 -1.5263800799059245e-18 -0.09950618975178896" pbc="T T T"
Ti       1.38507258       1.38507258       2.21368479        0
Al      -0.00000000       0.00000000       0.00000001        1
