2
Lattice="2.7739318985110644 -4.201994208088628e-68 1.1943327395651514e-35 -1.0496367746234318e-68 2.7739318985110644 3.2776013079380016e-17 -3.815427575907072e-51 4.717425271716778e-17 4.022819851129375" Properties=species:S:1:pos:R:3:tags:I:1 spacegroup="P 1" unit_cell=conventional n_minim_iter=2 pbc="T T T"
Ti       1.38696595       1.38696595       2.01140993        0
Al      -0.00000000       0.00000000       0.00000000        1
