2
Lattice="4.985038744876185 4.209970568186023e-17 2.7447515755878745e-15 4.2099705681880834e-17 4.985038744876185 -4.735584367944702e-15 2.492519372438091 2.4925193724380943 1.5125533396909443" Properties=species:S:1:pos:R:3 cutoff=-1.0 nneightol=1.2 n_minim_iter=1 energy=-325.47968412825264 free_energy=-325.47968412825264 pbc="T T T"
Si      -0.00000000      -1.24625968      -0.37813833
Si      -0.00000000       1.24625969       0.37813833
