2
Lattice="4.485781804307448 -2.5244721197024665e-18 -8.604065033019924e-17 -2.524472119702644e-18 4.485781804307448 2.5566215965724965e-16 2.242890902153724 2.242890902153724 1.2199032361035207" Properties=species:S:1:pos:R:3 cutoff=-1.0 nneightol=1.2 n_minim_iter=1 energy=-325.09602691089634 free_energy=-325.09602691089634 pbc="T T T"
Si      -0.00000000      -1.12144545      -0.30497581
Si      -0.00000000       1.12144545       0.30497581
