2
Lattice="4.950893572280262 4.1811342483435327e-17 2.725951317239289e-15 4.1811342483450826e-17 4.950893572280263 -4.703147840595296e-15 2.47544678614013 2.4754467861401332 1.502193060165059" Properties=species:S:1:pos:R:3 cutoff=-1.0 nneightol=1.2 n_minim_iter=1 energy=-325.5194567375806 free_energy=-325.5194567375806 pbc="T T T"
Si      -0.00000000      -1.23772339      -0.37554827
Si      -0.00000000       1.23772339       0.37554827
