2
Lattice="5.002302169192899 1.0821126725929876e-17 1.847999579198726e-16 1.0821126725929819e-17 5.002302169192899 -2.0883522867758405e-16 2.5011510845964495 2.5011510845964495 1.3795084479972612" Properties=species:S:1:pos:R:3 cutoff=-1.0 nneightol=1.2 n_minim_iter=1 energy=-325.5999476983692 free_energy=-325.5999476983692 pbc="T T T"
Si      -0.00000000      -1.25057554      -0.34487711
Si      -0.00000000       1.25057554       0.34487711
2
Lattice="4.920747106227758 -4.519897370347499e-17 2.71629181640685e-15 -4.519897370347419e-17 4.920747106227757 -4.6166562479946945e-15 2.460373553113879 2.460373553113877 1.42561454378653" Properties=species:S:1:pos:R:3 cutoff=-1.0 nneightol=1.2 n_minim_iter=2 stress="0.04281936934880919 6.131039653566324e-17 4.0611450332009347e-16 6.131039653566324e-17 0.04281936934880826 -5.015338685223384e-16 4.0611450332009347e-16 -5.015338685223384e-16 0.03666968937469106" pbc="T T T"
Si      -0.00000000      -1.23018678      -0.35640364
Si      -0.00000000       1.23018678       0.35640364
