2
Lattice="2.7766082170005815 -8.861136290797261e-16 4.906776848819419e-41 -1.38830410850029 2.4046132522791193 2.3986305907536055e-25 -2.516871358746092e-40 -4.429089434314992e-25 4.4401364638383685" Properties=species:S:1:pos:R:3 n_minim_iter=1 energy=-3187.2312438803356 free_energy=-3187.2312438803356 pbc="T T T"
Ti       0.00000000       0.00000000       0.00000000
Ti       0.00000000       1.60307550       2.22006823
