2
Lattice="2.566365746955353 -8.546075054746873e-16 2.2424109776069355e-41 -1.2831828734776758 2.222537932265562 2.2170082729060975e-25 -1.1788355842299444e-40 -4.203645549913415e-25 4.214130277572315" Properties=species:S:1:pos:R:3 n_minim_iter=1 energy=-3185.7486267476484 free_energy=-3185.7486267476484 pbc="T T T"
Ti       0.00000000       0.00000000       0.00000000
Ti       0.00000000       1.48169195       2.10706514
2
Lattice="2.5431630253648545 -8.102602002634304e-16 2.51401555281624e-41 -1.2715815126824266 2.202443785931253 2.1969641206721074e-25 -1.2486179165147703e-40 -4.280699953930124e-25 4.291376870590557" Properties=species:S:1:pos:R:3 n_minim_iter=2 stress="-0.5265052526328683 -2.495974712994111e-16 2.159476533098006e-16 -2.495974712994111e-16 -0.5265052526328701 -4.734328682962268e-17 2.159476533098006e-16 -4.734328682962268e-17 -0.5401160553026504" pbc="T T T"
Ti      -0.00000000       0.00000000       0.00000000
Ti       0.00000000       1.46829586       2.14568844
