4
Lattice="1.755212903752896 -3.0401179274005177 8.910003891485674e-18 1.7552129037528952 3.0401179274005177 -8.910003891485572e-18 -1.743845717808639e-31 1.7369733723928262e-17 5.926601102694125" Properties=species:S:1:pos:R:3 cutoff=-1.0 nneightol=1.2 n_minim_iter=1 energy=-651.0477755086636 free_energy=-651.0477755086636 pbc="T T T"
Si       1.75521290       1.01337264       0.37443412
Si       1.75521290      -1.01337264       3.33773468
Si       1.75521290       1.01337264       2.58886643
Si       1.75521290      -1.01337264      -0.37443412
4
Lattice="1.7511246711886028 -3.033036900886004 1.6169548294472277e-17 1.751124671188602 3.033036900886004 -1.6169548294472083e-17 -1.7679847206971683e-31 3.1431051404800015e-18 5.954306276752697" Properties=species:S:1:pos:R:3 cutoff=-1.0 nneightol=1.2 n_minim_iter=2 stress="-0.22111953379195948 -3.9478062257508074e-16 1.7682024966941404e-16 -3.9478062257508074e-16 -0.2211195337919594 1.165498123065307e-16 1.7682024966941404e-16 1.165498123065307e-16 -0.218130405673529" pbc="T T T"
Si       1.75112467       1.01101230       0.37403336
Si       1.75112467      -1.01101230       3.35118650
Si       1.75112467       1.01101230       2.60311977
Si       1.75112467      -1.01101230      -0.37403336
4
Lattice="1.7566634133309431 -3.0426302836865604 2.184367360351978e-17 1.7566634133309422 3.0426302836865604 -2.1843673603519622e-17 -1.2990872044510306e-31 -8.21265979619581e-18 5.916817734500896" Properties=species:S:1:pos:R:3 cutoff=-1.0 nneightol=1.2 n_minim_iter=3 stress="-0.21630780633653565 -1.8282670766190705e-16 -1.5880087569193558e-17 -1.8282670766190705e-16 -0.21630780633653587 -8.433820419412003e-17 -1.5880087569193558e-17 -8.433820419412003e-17 -0.21632353862524872" pbc="T T T"
Si       1.75666341       1.01421009       0.36314263
Si       1.75666341      -1.01421009       3.32155150
Si       1.75666341       1.01421009       2.59526624
Si       1.75666341      -1.01421009      -0.36314263
4
Lattice="1.7578282206395506 -3.0446477891260955 2.0972571941687193e-17 1.7578282206395497 3.0446477891260955 -2.0972571941687042e-17 -1.1907118508878362e-31 -6.572614873576538e-18 5.908978892208797" Properties=species:S:1:pos:R:3 cutoff=-1.0 nneightol=1.2 n_minim_iter=4 stress="-0.21506310109183405 -4.88560907823097e-16 -1.4196085191389606e-16 -4.88560907823097e-16 -0.21506310109183444 1.6386682047615035e-16 -1.4196085191389606e-16 1.6386682047615035e-16 -0.21528470639044414" pbc="T T T"
Si       1.75782822       1.01488260       0.36058187
Si       1.75782822      -1.01488260       3.31507132
Si       1.75782822       1.01488260       2.59390757
Si       1.75782822      -1.01488260      -0.36058187
