4
Lattice="1.8410951946463248 -3.188870418698345 4.899026953699006e-18 1.8410951946463243 3.188870418698345 -4.899026953699022e-18 2.601060477068378e-32 9.343124202731436e-18 6.081618384609792" Properties=species:S:1:pos:R:3 cutoff=-1.0 nneightol=1.2 n_minim_iter=1 energy=-652.2339371665032 free_energy=-652.2339371665032 pbc="T T T"
Si       1.84109519       1.06295681       0.38413564
Si       1.84109519      -1.06295681       3.42494483
Si       1.84109519       1.06295681       2.65667355
Si       1.84109519      -1.06295681      -0.38413564
4
Lattice="1.8393527518837274 -3.185852419304246 4.8280842542040625e-18 1.839352751883727 3.185852419304246 -4.828084254204038e-18 3.021331915491888e-32 9.48952100653102e-18 6.093146234507561" Properties=species:S:1:pos:R:3 cutoff=-1.0 nneightol=1.2 n_minim_iter=2 stress="-0.08914897283002195 -1.1319736339236284e-16 8.859388405182896e-17 -1.1319736339236284e-16 -0.089148972830022 2.922980084461278e-17 8.859388405182896e-17 2.922980084461278e-17 -0.08932551180262609" pbc="T T T"
Si       1.83935275       1.06195081       0.38455404
Si       1.83935275      -1.06195081       3.43112716
Si       1.83935275       1.06195081       2.66201908
Si       1.83935275      -1.06195081      -0.38455404
4
Lattice="1.8386359934269851 -3.1846109572404138 3.653012291915909e-18 1.8386359934269847 3.1846109572404138 -3.653012291915885e-18 2.980323051839962e-32 1.1730711939199437e-17 6.097897762668588" Properties=species:S:1:pos:R:3 cutoff=-1.0 nneightol=1.2 n_minim_iter=3 stress="-0.08915215259518408 -2.979245224759767e-16 -2.4887423693747954e-17 -2.979245224759767e-16 -0.0891521525951832 1.1226796269622128e-17 -2.4887423693747954e-17 1.1226796269622128e-17 -0.08914872647191995" pbc="T T T"
Si       1.83863599       1.06153699       0.38606397
Si       1.83863599      -1.06153699       3.43501285
Si       1.83863599       1.06153699       2.66288491
Si       1.83863599      -1.06153699      -0.38606397
