4
Lattice="1.7995047468025158 -3.116833649923325 -4.273741056551418e-18 1.799504746802516 3.116833649923325 4.273741056551501e-18 -1.3747154665229534e-31 -8.230119430043522e-18 6.0022151185608585" Properties=species:S:1:pos:R:3 cutoff=-1.0 nneightol=1.2 n_minim_iter=1 energy=-651.7688660314791 free_energy=-651.7688660314791 pbc="T T T"
Si       1.79950475       1.03894455       0.38095622
Si       1.79950475      -1.03894455       3.38206378
Si       1.79950475       1.03894455       2.62015134
Si       1.79950475      -1.03894455      -0.38095622
4
Lattice="1.7961349003156253 -3.110996904594324 2.996796474197513e-17 1.7961349003156255 3.110996904594324 -2.9967964741975196e-17 -1.3757672767936768e-31 -7.465899305996342e-17 6.024758545226336" Properties=species:S:1:pos:R:3 cutoff=-1.0 nneightol=1.2 n_minim_iter=2 stress="-0.14054286468316285 1.1515211651481348e-16 7.954635022749632e-17 1.1515211651481348e-16 -0.14054286468316296 -8.131755024247455e-18 7.954635022749632e-17 -8.131755024247455e-18 -0.14081746993432212" pbc="T T T"
Si       1.79613490       1.03699897       0.38156853
Si       1.79613490      -1.03699897       3.39394781
Si       1.79613490       1.03699897       2.63081074
Si       1.79613490      -1.03699897      -0.38156853
4
Lattice="1.7953129691607825 -3.109573278073813 -2.60090703752934e-18 1.7953129691607828 3.109573278073813 2.600907037529303e-18 -1.4469117939717412e-31 -1.1835127282360044e-17 6.030276324446995" Properties=species:S:1:pos:R:3 cutoff=-1.0 nneightol=1.2 n_minim_iter=3 stress="-0.14059088360057 2.0054560558681085e-16 -1.175836406969148e-16 2.0054560558681085e-16 -0.14059088360057076 -7.612636586558825e-18 -1.175836406969148e-16 -7.612636586558825e-18 -0.14059144391951814" pbc="T T T"
Si       1.79531297       1.03652443       0.38327203
Si       1.79531297      -1.03652443       3.39841019
Si       1.79531297       1.03652443       2.63186613
Si       1.79531297      -1.03652443      -0.38327203
