4
Lattice="1.9918768307485102 -3.4500318732756927 4.263577449472753e-18 1.9918768307485106 3.4500318732756927 -4.263577449472753e-18 7.6724304677394045e-34 8.072022716191034e-18 6.5317766553316305" Properties=species:S:1:pos:R:3 cutoff=-1.0 nneightol=1.2 n_minim_iter=1 energy=-652.4718036603826 free_energy=-652.4718036603826 pbc="T T T"
Si       1.99187683       1.15001062       0.40660325
Si       1.99187683      -1.15001062       3.67249157
Si       1.99187683       1.15001062       2.85928508
Si       1.99187683      -1.15001062      -0.40660325
