4
Lattice="1.8973264366255957 -3.2862657867791434 4.067039957234951e-18 1.8973264366255957 3.2862657867791434 -4.067039957234951e-18 -7.308235597149532e-34 7.694472362096874e-18 6.217318132292912" Properties=species:S:1:pos:R:3 cutoff=-1.0 nneightol=1.2 n_minim_iter=1 energy=-652.5958886083541 free_energy=-652.5958886083541 pbc="T T T"
Si       1.89732644       1.09542193       0.38826651
Si       1.89732644      -1.09542193       3.49692558
Si       1.89732644       1.09542193       2.72039255
Si       1.89732644      -1.09542193      -0.38826651
4
Lattice="1.8958704922148044 -3.2837440170866565 4.07328896822873e-18 1.8958704922148044 3.2837440170866565 -4.07328896822873e-18 -1.2121762280391723e-33 7.68856788313462e-18 6.226871047870102" Properties=species:S:1:pos:R:3 cutoff=-1.0 nneightol=1.2 n_minim_iter=2 stress="-0.03177266454442033 -4.340427266053728e-19 4.919547890683924e-17 -4.340427266053728e-19 -0.03177266454442086 -1.438645935661595e-16 4.919547890683924e-17 -1.438645935661595e-16 -0.031015294551402055" pbc="T T T"
Si       1.89587049       1.09458134       0.38917890
Si       1.89587049      -1.09458134       3.50261442
Si       1.89587049       1.09458134       2.72425663
Si       1.89587049      -1.09458134      -0.38917890
4
Lattice="1.895483832471003 -3.283074302765153 5.892875492003713e-18 1.895483832471003 3.283074302765153 -5.892875492003736e-18 -8.624904559045907e-34 4.247650745109751e-18 6.2294117458113405" Properties=species:S:1:pos:R:3 cutoff=-1.0 nneightol=1.2 n_minim_iter=3 stress="-0.031290839657689154 1.095892751390009e-16 1.747588988715059e-16 1.095892751390009e-16 -0.031290839657688634 3.1263192422193585e-16 1.747588988715059e-16 3.1263192422193585e-16 -0.03182394016397959" pbc="T T T"
Si       1.89548383       1.09435810       0.39133343
Si       1.89548383      -1.09435810       3.50603930
Si       1.89548383       1.09435810       2.72337244
Si       1.89548383      -1.09435810      -0.39133343
