4
Lattice="2.0303713263849037 -3.5167062955296657 4.59255502904684e-21 2.030371326384904 3.5167062955296657 -4.592555029046843e-21 3.727820920004216e-36 8.759049956071743e-21 6.707161030963046" Properties=species:S:1:pos:R:3 cutoff=-1.0 nneightol=1.2 n_minim_iter=1 energy=-652.1527405794457 free_energy=-652.1527405794457 pbc="T T T"
Si       2.03037133       1.17223543       0.42390670
Si       2.03037133      -1.17223543       3.77748721
Si       2.03037133       1.17223543       2.92967382
Si       2.03037133      -1.17223543      -0.42390670
4
Lattice="2.029079773289124 -3.5144692599471026 -6.206302891894152e-19 2.0290797732891246 3.5144692599471026 6.206302891894162e-19 -1.1086920953943244e-35 1.2024265445648081e-18 6.715702254123288" Properties=species:S:1:pos:R:3 cutoff=-1.0 nneightol=1.2 n_minim_iter=2 stress="0.06152540458361473 3.006869862762682e-17 1.1274292868159865e-17 3.006869862762682e-17 0.06152540458361466 5.218990559575755e-17 1.1274292868159865e-17 5.218990559575755e-17 0.06220180098624908" pbc="T T T"
Si       2.02907977       1.17148975       0.42535623
Si       2.02907977      -1.17148975       3.78320736
Si       2.02907977       1.17148975       2.93249489
Si       2.02907977      -1.17148975      -0.42535623
4
Lattice="2.0292470843452795 -3.5147590511970326 -6.267145049205588e-19 2.02924708434528 3.5147590511970326 6.267145049205599e-19 -1.2042890851882462e-35 1.2143248606781414e-18 6.714594882896925" Properties=species:S:1:pos:R:3 cutoff=-1.0 nneightol=1.2 n_minim_iter=3 stress="0.061631039077990724 6.711081362003727e-17 -1.992244522887687e-19 6.711081362003727e-17 0.06163103907799057 3.1837541981800946e-17 -1.992244522887687e-19 3.1837541981800946e-17 0.061925749767766346" pbc="T T T"
Si       2.02924708       1.17158635       0.42593250
Si       2.02924708      -1.17158635       3.78322994
Si       2.02924708       1.17158635       2.93136494
Si       2.02924708      -1.17158635      -0.42593250
