4
Lattice="1.958065315498456 -3.391468610981709 3.4693417816386326e-35 1.9580653154984555 3.391468610981709 -3.46934178163863e-35 -2.995339527223522e-50 6.592437851926502e-35 6.444463374287764" Properties=species:S:1:pos:R:3 cutoff=-1.0 nneightol=1.2 n_minim_iter=1 energy=-652.6076658665909 free_energy=-652.6076658665909 pbc="T T T"
Si       1.95806532       1.13048954       0.40294419
Si       1.95806532      -1.13048954       3.62517588
Si       1.95806532       1.13048954       2.81928749
Si       1.95806532      -1.13048954      -0.40294419
4
Lattice="1.9573554548443102 -3.390239096262435 3.226102235324039e-35 1.9573554548443097 3.390239096262435 -3.2261022353240646e-35 -4.958832634597286e-49 7.056884950229634e-35 6.449138560399119" Properties=species:S:1:pos:R:3 cutoff=-1.0 nneightol=1.2 n_minim_iter=2 stress="0.02224237809487791 -9.97372294049694e-17 -3.50829085819424e-17 -9.97372294049694e-17 0.02224237809487791 -3.039814417171746e-18 -3.50829085819424e-17 -3.039814417171746e-18 0.022754717400424018" pbc="T T T"
Si       1.95735545       1.13007970       0.40374257
Si       1.95735545      -1.13007970       3.62831185
Si       1.95735545       1.13007970       2.82082671
Si       1.95735545      -1.13007970      -0.40374257
4
Lattice="1.957403711621383 -3.3903226794521344 3.253369098018343e-35 1.9574037116213825 3.3903226794521344 -3.2533690980183687e-35 -3.4189089823559975e-49 7.004901594390465e-35 6.448820577140261" Properties=species:S:1:pos:R:3 cutoff=-1.0 nneightol=1.2 n_minim_iter=3 stress="0.02235531068231191 8.838235506802109e-17 -4.8560744634508363e-17 8.838235506802109e-17 0.022355310682312408 -6.6000683122013455e-18 -4.8560744634508363e-17 -6.6000683122013455e-18 0.022499450645925557" pbc="T T T"
Si       1.95740371       1.13010756       0.40420438
Si       1.95740371      -1.13010756       3.62861467
Si       1.95740371       1.13010756       2.82020591
Si       1.95740371      -1.13010756      -0.40420438
