2
Lattice="2.7739318985110644 -6.128773146845612e-68 1.194332739565151e-35 -1.4111905744380697e-52 2.7739318985110644 3.2776013079380016e-17 -1.732048813511006e-35 -4.753252815160274e-17 4.022819851129375" Properties=species:S:1:pos:R:3:tags:I:1 spacegroup="P 1" unit_cell=conventional n_minim_iter=1 energy=-1704.2931113595562 free_energy=-1704.2931113595562 pbc="T T T"
Ti       1.38696595       1.38696595       2.01140993        0
Al       0.00000000       0.00000000       0.00000000        1
