2
Lattice="3.0403726482729088 -9.369975799171267e-16 -9.321136916908642e-41 -1.5201863241364535 2.6330399503757094 2.626488964768641e-25 -4.201493596523977e-43 -4.991812974104317e-25 5.004263548001707" Properties=species:S:1:pos:R:3 n_minim_iter=1 energy=-3186.8747684959158 free_energy=-3186.8747684959158 pbc="T T T"
Ti       0.00000000       0.00000000       0.00000000
Ti       0.00000000       1.75535997       2.50213177
2
Lattice="3.053908850590154 -9.516282474719907e-16 -9.208104137602061e-41 -1.5269544252950762 2.6447626454532096 2.638182493859991e-25 3.53640950504813e-42 -4.947659435827708e-25 4.959999882023202" Properties=species:S:1:pos:R:3 n_minim_iter=2 stress="0.06235869532197606 -8.449261136551945e-17 -1.4363316488941848e-18 -8.449261136551945e-17 0.06235869532197595 5.716376846738207e-18 -1.4363316488941848e-18 5.716376846738207e-18 0.05554739563215241" pbc="T T T"
Ti       0.00000000      -0.00000000      -0.00000000
Ti       0.00000000       1.76317510       2.47999994
