2
Lattice="2.928540063173865 -9.313512561956432e-16 4.99013276284075e-41 -1.4642700315869317 2.536190090709052 2.529880066898495e-25 -2.261941419791979e-40 -4.627091110873131e-25 4.638631995939282" Properties=species:S:1:pos:R:3 n_minim_iter=1 energy=-3187.2384195728605 free_energy=-3187.2384195728605 pbc="T T T"
Ti       0.00000000       0.00000000       0.00000000
Ti       0.00000000       1.69079339       2.31931600
2
Lattice="2.9687001241204922 -9.191415358861315e-16 3.843411123858948e-41 -1.484350062060245 2.5709697237063627 2.5645731684038865e-25 -2.428600599063206e-40 -4.502748904454695e-25 4.513979655339614" Properties=species:S:1:pos:R:3 n_minim_iter=2 stress="0.05880018495670673 2.734054674044784e-17 1.3318491195917422e-17 2.734054674044784e-17 0.05880018495670667 -5.102713107770498e-18 1.3318491195917422e-17 -5.102713107770498e-18 0.06094421466546081" pbc="T T T"
Ti      -0.00000000       0.00000000       0.00000000
Ti       0.00000000       1.71397982       2.25698983
