1
Lattice="2.801600205652351 2.2880925664145994e-17 3.6206699421725175e-50 1.4008001028261754 2.426256949342643 -6.060186024987424e-49 -4.120945414305786e-49 6.667731740415568e-48 2.6018355958443955" Properties=species:S:1:pos:R:3 cutoff=-1.0 nneightol=1.2 n_minim_iter=1 energy=-162.73344605866419 free_energy=-162.73344605866419 pbc="T T T"
Si       0.00000000       0.00000000       0.00000000
