4
Lattice="5.802221131074865 1.1934704998093664 1.736560970886657e-12 3.5682656818280933 4.72838470428272 3.1256720192976522e-12 -4.6852434064518835 -2.960927602047121 2.0908237241674734" Properties=species:S:1:pos:R:3:tags:I:1 spacegroup="P 1" unit_cell=conventional n_minim_iter=1 energy=-2165.8236483858054 free_energy=-2165.8236483858054 pbc="T T T"
Ti       0.00000000       0.00000000       0.00000000        0
Al       4.68524341       2.96092760       0.00000000        1
Al       2.90111057       0.59673525       1.04541186        2
Al       1.78413284       2.36419235       1.04541186        3
4
Lattice="5.828846907521684 1.2182326356530957 1.7546869240709668e-12 3.6020588566123886 4.741805459885046 3.1388596991975428e-12 -4.715452882067437 -2.980019047770143 2.084115548098133" Properties=species:S:1:pos:R:3:tags:I:1 spacegroup="P 1" unit_cell=conventional n_minim_iter=2 stress="27.441667462429095 -0.3592442204133948 -1.8496871517905707e-13 -0.3592442204133948 27.78308879954425 -3.155731640122976e-13 -1.8496871517905707e-13 -3.155731640122976e-13 28.01011993449693" pbc="T T T"
Ti       0.00000000       0.00000000       0.00000000        0
Al       4.71545288       2.98001905       0.00000000        1
Al       2.91442345       0.60911632       1.04205777        2
Al       1.80102943       2.37090273       1.04205777        3
4
Lattice="5.830992467040438 1.2202242546705846 1.7561132048878501e-12 3.6047785795875122 4.742888547553668 3.1398862305622174e-12 -4.717885523314374 -2.981556401113198 2.083578171859704" Properties=species:S:1:pos:R:3:tags:I:1 spacegroup="P 1" unit_cell=conventional n_minim_iter=3 stress="27.500170245978843 0.00032154771339550217 1.9015986187724888e-13 0.00032154771339550217 27.499864650943447 -2.167209707962839e-13 1.9015986187724888e-13 -2.167209707962839e-13 27.499661442824053" pbc="T T T"
Ti       0.00000000       0.00000000       0.00000000        0
Al       4.71788552       2.98155640       0.00000000        1
Al       2.91549623       0.61011213       1.04178909        2
Al       1.80238929       2.37144427       1.04178909        3
