4
Lattice="6.122200295026354 1.3607334616012847 1.861822540800823e-12 3.8566741626645404 4.945603745649055 3.2773568971978977e-12 -4.98943722884585 -3.1531686036262605 2.1203716425322376" Properties=species:S:1:pos:R:3:tags:I:1 spacegroup="P 1" unit_cell=conventional n_minim_iter=1 energy=-2029.8398625426062 free_energy=-2029.8398625426062 pbc="T T T"
Ti       0.00000000       0.00000000       0.00000000        0
Al       4.98943723       3.15316860       0.00000000        1
Al       3.06110015       0.68036673       1.06018582        2
Al       1.92833708       2.47280187       1.06018582        3
4
Lattice="6.160926994540141 1.3961078245747098 1.8871620341659045e-12 3.9052461157344003 4.965399406435851 3.2967762678905324e-12 -5.03308655513767 -3.1807536155063643 2.111157184064633" Properties=species:S:1:pos:R:3:tags:I:1 spacegroup="P 1" unit_cell=conventional n_minim_iter=2 stress="24.67774990632275 -0.09778608417540068 -2.3451282718784293e-13 -0.09778608417540068 24.770684611220762 2.215324122931193e-13 -2.3451282718784293e-13 2.215324122931193e-13 24.83248236442421" pbc="T T T"
Ti       0.00000000       0.00000000       0.00000000        0
Al       5.03308656       3.18075362       0.00000000        1
Al       3.08046350       0.69805391       1.05557859        2
Al       1.95262306       2.48269970       1.05557859        3
4
Lattice="6.16220066359366 1.3972685262333426 1.8880581794219146e-12 3.9068411310245605 4.966051623748101 3.2972915291104613e-12 -5.03452089730951 -3.181660074991806 2.110856426797754" Properties=species:S:1:pos:R:3:tags:I:1 spacegroup="P 1" unit_cell=conventional n_minim_iter=3 stress="24.673598399867416 0.00014467809219293785 -1.3091647266898905e-13 0.00014467809219293785 24.673460899568557 2.6432371706706086e-13 -1.3091647266898905e-13 2.6432371706706086e-13 24.673369467529596" pbc="T T T"
Ti       0.00000000       0.00000000       0.00000000        0
Al       5.03452090       3.18166007       0.00000000        1
Al       3.08110033       0.69863426       1.05542821        2
Al       1.95342057       2.48302581       1.05542821        3
