4
Lattice="5.087887319999521 7.565505387386569e-13 8.949401069404353e-13 2.183719785742836 4.595428737165575 2.682621221191863e-12 -3.635803552871657 -2.297714368584526 2.718094661033344" Properties=species:S:1:pos:R:3:tags:I:1 spacegroup="P 1" unit_cell=conventional n_minim_iter=1 energy=-1917.686231014826 free_energy=-1917.686231014826 pbc="T T T"
Ti       0.00000000       0.00000000       0.00000000        0
Al       3.63580355       2.29771437       0.00000000        1
Al       2.54394366      -0.00000000       1.35904733        2
Al       1.09185989       2.29771437       1.35904733        3
4
Lattice="4.837884907716335 0.08921690082122541 8.952022314213157e-13 2.1570003841986183 4.331332286752965 2.545722593993919e-12 -3.4974426459579195 -2.2102745937883532 2.5091176126260524" Properties=species:S:1:pos:R:3:tags:I:1 spacegroup="P 1" unit_cell=conventional n_minim_iter=2 stress="-0.6649733448330892 -0.4287565977644527 -3.4095372598191686e-13 -0.4287565977644527 -0.2574882898551054 -2.1708425377480343e-13 -3.4095372598191686e-13 -2.1708425377480343e-13 0.01347249803736106" pbc="T T T"
Ti       0.00000000       0.00000000       0.00000000        0
Al       3.49744265       2.21027459       0.00000000        1
Al       2.41894245       0.04460845       1.25455881        2
Al       1.07850019       2.16566614       1.25455881        3
4
Lattice="4.85099123918683 0.12168978564533119 9.139350742469989e-13 2.1919554396596377 4.3292326984287115 2.551041452932312e-12 -3.5214733394236726 -2.22546124203827 2.4886687578927793" Properties=species:S:1:pos:R:3:tags:I:1 spacegroup="P 1" unit_cell=conventional n_minim_iter=3 stress="-0.8699719480096633 -0.29097806608916477 -2.356036311670259e-13 -0.29097806608916477 -0.5934299335521465 -1.5309684138905578e-13 -2.356036311670259e-13 -1.5309684138905578e-13 -0.4095408774815469" pbc="T T T"
Ti       0.00000000       0.00000000       0.00000000        0
Al       3.52147334       2.22546124       0.00000000        1
Al       2.42549562       0.06084489       1.24433438        2
Al       1.09597772       2.16461635       1.24433438        3
4
Lattice="5.2549150939809195 0.4214158512291224 1.1353304631859709e-12 2.6360349065588258 4.565418265177802 2.7486056876054105e-12 -3.9454750002703043 -2.493417058204694 2.4510859553903" Properties=species:S:1:pos:R:3:tags:I:1 spacegroup="P 1" unit_cell=conventional n_minim_iter=4 stress="0.5209670902851657 -0.487579323897292 -3.932488823572772e-13 -0.487579323897292 0.984356548640677 -2.5955485091467704e-13 -3.932488823572772e-13 -2.5955485091467704e-13 1.2924914635367546" pbc="T T T"
Ti       0.00000000       0.00000000       0.00000000        0
Al       3.94547500       2.49341706       0.00000000        1
Al       2.62745755       0.21070793       1.22554298        2
Al       1.31801745       2.28270913       1.22554298        3
4
Lattice="5.271928830126234 0.4367057932199055 1.146033249375982e-12 2.6571472198448793 4.574222796477961 2.7573715610913874e-12 -3.9645380249859876 -2.505464294850162 2.44724997812222" Properties=species:S:1:pos:R:3:tags:I:1 spacegroup="P 1" unit_cell=conventional n_minim_iter=5 stress="0.896612675512855 -0.2718349359042776 -2.202483452690517e-13 -0.2718349359042776 1.154961291906048 -1.4532169101611968e-13 -2.202483452690517e-13 -1.4532169101611968e-13 1.3267524871747942" pbc="T T T"
Ti       0.00000000       0.00000000       0.00000000        0
Al       3.96453802       2.50546429       0.00000000        1
Al       2.63596442       0.21835290       1.22362499        2
Al       1.32857361       2.28711140       1.22362499        3
4
Lattice="5.2242607565337424 0.7906131860867205 1.312223398219711e-12 2.9563406556035225 4.379271582158211 2.711171052434033e-12 -4.0903007060690095 -2.5849423841235315 2.1226122271780774" Properties=species:S:1:pos:R:3:tags:I:1 spacegroup="P 1" unit_cell=conventional n_minim_iter=6 stress="-31.548140972891886 -17.007324724531824 -1.3260139855757884e-11 -17.007324724531824 -15.384586437431349 -8.472863907300402e-12 -1.3260139855757884e-11 -8.472863907300402e-12 -4.6364880260483545" pbc="T T T"
Ti       0.00000000       0.00000000       0.00000000        0
Al       4.09030071       2.58494238       0.00000000        1
Al       2.61213038       0.39530659       1.06130611        2
Al       1.47817033       2.18963579       1.06130611        3
4
Lattice="5.224320573955017 0.7928743360012277 1.3108962577254027e-12 2.9584086215628265 4.378355124930121 2.7110476583202387e-12 -4.0913645977592985 -2.5856147304667383 2.120732742694008" Properties=species:S:1:pos:R:3:tags:I:1 spacegroup="P 1" unit_cell=conventional n_minim_iter=7 stress="-32.83387321594796 -16.92901319905156 -1.3355013862686019e-11 -16.92901319905156 -16.744745001696515 -8.157907570934733e-12 -1.3355013862686019e-11 -8.157907570934733e-12 -6.046137030240935" pbc="T T T"
Ti       0.00000000       0.00000000       0.00000000        0
Al       4.09136460       2.58561473       0.00000000        1
Al       2.61216029       0.39643717       1.06036637        2
Al       1.47920431       2.18917756       1.06036637        3
4
Lattice="5.554692824657165 1.0951164825771875 1.517512346512134e-12 3.373192309515357 4.547028274569714 2.863956000327337e-12 -4.463942567086626 -2.821072378574477 2.041729629335457" Properties=species:S:1:pos:R:3:tags:I:1 spacegroup="P 1" unit_cell=conventional n_minim_iter=8 stress="-50.550592128033735 0.5484755096259384 5.122592819227639e-13 0.5484755096259384 -51.071856580544285 5.351835231946298e-13 5.122592819227639e-13 5.351835231946298e-13 -51.41847598419393" pbc="T T T"
Ti       0.00000000       0.00000000       0.00000000        0
Al       4.46394257       2.82107238       0.00000000        1
Al       2.77734641       0.54755824       1.02086481        2
Al       1.68659615       2.27351414       1.02086481        3
4
Lattice="5.670560376410159 1.1764740454347267 1.568779615184604e-12 3.496405562522283 4.61676231838477 2.9119698828136936e-12 -4.583482969466591 -2.896618181910774 2.034854574393026" Properties=species:S:1:pos:R:3:tags:I:1 spacegroup="P 1" unit_cell=conventional n_minim_iter=9 stress="-22.092502415198524 16.123376613560417 1.2414287232623626e-11 16.123376613560417 -37.41596341862911 9.051003620114698e-12 1.2414287232623626e-11 9.051003620114698e-12 -47.60543421272692" pbc="T T T"
Ti       0.00000000       0.00000000       0.00000000        0
Al       4.58348297       2.89661818       0.00000000        1
Al       2.83528019       0.58823702       1.01742729        2
Al       1.74820278       2.30838116       1.01742729        3
4
Lattice="5.6758621234150874 1.1454453674454066 1.5387049762489556e-12 3.470655670585853 4.634868406983097 2.898592878132258e-12 -4.573258897000853 -2.890156887215298 2.0639167042554925" Properties=species:S:1:pos:R:3:tags:I:1 spacegroup="P 1" unit_cell=conventional n_minim_iter=10 stress="-1.4178564076558977 -0.8762685861815024 -1.1840350569614018e-12 -0.8762685861815024 -0.5850614025709838 -6.196671648211171e-13 -1.1840350569614018e-12 -6.196671648211171e-13 -0.03128700526804384" pbc="T T T"
Ti       0.00000000       0.00000000       0.00000000        0
Al       4.57325890       2.89015689       0.00000000        1
Al       2.83793106       0.57272268       1.03195835        2
Al       1.73532784       2.31743420       1.03195835        3
4
Lattice="5.682296163011845 1.1499719492282927 1.5263922886383042e-12 3.4775056107248368 4.638736885787745 2.8863421768286936e-12 -4.579900886868731 -2.894354417509069 2.063527450870488" Properties=species:S:1:pos:R:3:tags:I:1 spacegroup="P 1" unit_cell=conventional n_minim_iter=11 stress="-0.23704457640444568 -0.09711203715943975 -9.13038633260524e-13 -0.09711203715943975 -0.1447504775919711 -1.3558117520824515e-13 -9.13038633260524e-13 -1.3558117520824515e-13 -0.08337870106560209" pbc="T T T"
Ti       0.00000000       0.00000000       0.00000000        0
Al       4.57990089       2.89435442       0.00000000        1
Al       2.84114808       0.57498597       1.03176373        2
Al       1.73875281       2.31936844       1.03176373        3
4
Lattice="5.6833919895789755 1.1506733708393184 1.5023771547387641e-12 3.478609469916546 4.639425596922027 2.8648159189716987e-12 -4.581000729748163 -2.895049483881731 2.063519932904085" Properties=species:S:1:pos:R:3:tags:I:1 spacegroup="P 1" unit_cell=conventional n_minim_iter=12 stress="-0.0057895633354538055 0.0021069169991775613 -1.1755135892193779e-12 0.0021069169991775613 -0.007791951623490658 -7.760044193065631e-14 -1.1755135892193779e-12 -7.760044193065631e-14 -0.009123457408973554" pbc="T T T"
Ti       0.00000000       0.00000000       0.00000000        0
Al       4.58100073       2.89504948       0.00000000        1
Al       2.84169599       0.57533669       1.03175997        2
Al       1.73930473       2.31971280       1.03175997        3
