1
Lattice="2.502537974137649 -8.524974465099872e-18 1.0432321374686478e-49 1.2512689870688245 2.1672614595384485 3.9477512371117915e-50 -1.5754381878076745e-48 6.827708896119525e-49 2.2133648576956406" Properties=species:S:1:pos:R:3 cutoff=-1.0 nneightol=1.2 n_minim_iter=1 energy=-162.49073269465615 free_energy=-162.49073269465615 pbc="T T T"
Si       0.00000000       0.00000000       0.00000000
