8
Lattice="5.785731365756122 -7.889353254465264e-16 -4.7305759567974526e-48 -2.89286568287806 5.010590342217236 3.978713749943319e-48 3.869964997668983e-48 -1.52409267178264e-48 4.733161051820405" Properties=species:S:1:pos:R:3:tags:I:1 spacegroup="P 1" unit_cell=conventional n_minim_iter=1 energy=-9784.384250455832 free_energy=-9784.384250455832 pbc="T T T"
Ti       2.89286569       3.48595732       1.18329026        0
Ti      -1.57249040       4.24827634       3.54987079        1
Ti       1.57249041       4.24827634       3.54987079        2
Ti       1.32037528       0.76232404       1.18329026        3
Ti       4.46535610       0.76232404       1.18329026        4
Ti       0.00000001       1.52464306       3.54987079        5
Al       0.00000001       3.34039858       1.18329026        6
Al       2.89286569       1.67020180       3.54987079        7
8
Lattice="5.7194696723537675 -7.571800854561772e-16 -4.6891549374056435e-48 -2.8597348361768824 4.95320603243302 3.9406270533212153e-48 3.9444414391837674e-48 -1.5762285852989114e-48 4.843466382678118" Properties=species:S:1:pos:R:3:tags:I:1 spacegroup="P 1" unit_cell=conventional n_minim_iter=2 stress="-0.027054251642668326 -4.6684888115503455e-17 4.542471167531796e-17 -4.6684888115503455e-17 -0.027054251642669204 -1.5121573181153932e-16 4.542471167531796e-17 -1.5121573181153932e-16 -0.030348851175735214" pbc="T T T"
Ti       2.85973484       3.44560284       1.21086659        0
Ti      -1.55410787       4.19940691       3.63259978        1
Ti       1.55410788       4.19940691       3.63259978        2
Ti       1.30562696       0.75380903       1.21086659        3
Ti       4.41384272       0.75380903       1.21086659        4
Ti       0.00000000       1.50761311       3.63259978        5
Al       0.00000000       3.30214231       1.21086659        6
Al       2.85973484       1.65107363       3.63259978        7
8
Lattice="5.710265191179209 -6.640928536051092e-16 -4.695667886257419e-48 -2.8551325955896028 4.945234717907196 2.7494320328440396e-48 4.261253598150578e-48 -1.432323760829163e-48 4.859093511923623" Properties=species:S:1:pos:R:3:tags:I:1 spacegroup="P 1" unit_cell=conventional n_minim_iter=3 stress="-0.02458951729387709 3.741712475172521e-16 -3.88045639480096e-16 3.741712475172521e-16 -0.02458951729387793 1.4767788622631428e-16 -3.88045639480096e-16 1.4767788622631428e-16 -0.024289927616100788" pbc="T T T"
Ti       2.85513260       3.43946302       1.21477338        0
Ti      -1.55109176       4.19235134       3.64432013        1
Ti       1.55109177       4.19235134       3.64432013        2
Ti       1.30404084       0.75289327       1.21477338        3
Ti       4.40622437       0.75289327       1.21477338        4
Ti       0.00000000       1.50578160       3.64432013        5
Al       0.00000000       3.29682809       1.21477338        6
Al       2.85513260       1.64841652       3.64432013        7
8
Lattice="5.704236516195731 -5.451154581157342e-16 -5.488525613856658e-48 -2.852118258097864 4.940013732220345 1.1484595701052327e-48 1.7257511765776844e-48 -7.321969154081321e-48 4.8693698654489745" Properties=species:S:1:pos:R:3:tags:I:1 spacegroup="P 1" unit_cell=conventional n_minim_iter=4 stress="-0.021848766440644214 2.3452938417598533e-16 -1.9853867761766544e-16 2.3452938417598533e-16 -0.02184876644064448 -7.17923180134254e-17 -1.9853867761766544e-16 -7.17923180134254e-17 -0.020884034793927322" pbc="T T T"
Ti       2.85211826       3.43079073       1.21734246        0
Ti      -1.54508851       4.18540470       3.65202740        1
Ti       1.54508852       4.18540470       3.65202740        2
Ti       1.30702975       0.75461892       1.21734246        3
Ti       4.39720678       0.75461892       1.21734246        4
Ti       0.00000000       1.50923289       3.65202740        5
Al       0.00000000       3.29334743       1.21734246        6
Al       2.85211826       1.64667619       3.65202740        7
8
Lattice="5.703814466139754 -5.686759155561754e-16 -6.180464354783076e-48 -2.851907233069875 4.939648226150203 1.1182170553696655e-48 1.595104312714581e-48 -7.425582410378484e-48 4.870090503846324" Properties=species:S:1:pos:R:3:tags:I:1 spacegroup="P 1" unit_cell=conventional n_minim_iter=5 stress="-0.021733097858420196 2.5202027437319376e-16 1.6846483055279088e-16 2.5202027437319376e-16 -0.02173309785841993 -1.0334172568454956e-16 1.6846483055279088e-16 -1.0334172568454956e-16 -0.020949259388081072" pbc="T T T"
Ti       2.85190724       3.42769659       1.21752262        0
Ti      -1.54251442       4.18367488       3.65256788        1
Ti       1.54251443       4.18367488       3.65256788        2
Ti       1.30939282       0.75598324       1.21752262        3
Ti       4.39442166       0.75598324       1.21752262        4
Ti       0.00000000       1.51196153       3.65256788        5
Al       0.00000000       3.29310376       1.21752262        6
Al       2.85190724       1.64655435       3.65256788        7
8
Lattice="5.7053170404613756 -5.6509146937243345e-16 -5.43025627077471e-48 -2.852658520230686 4.940949493683801 1.0849141681804449e-48 1.5757887992545542e-48 -1.6431748037749086e-48 4.867525629965389" Properties=species:S:1:pos:R:3:tags:I:1 spacegroup="P 1" unit_cell=conventional n_minim_iter=6 stress="-0.022507898008719815 7.915129950803246e-16 8.392885172484937e-17 7.915129950803246e-16 -0.022507898008719055 4.891095097499859e-18 8.392885172484937e-17 4.891095097499859e-18 -0.022189666452219564" pbc="T T T"
Ti       2.85265853       3.42650513       1.21688140        0
Ti      -1.54110694       4.18372979       3.65064422        1
Ti       1.54110695       4.18372979       3.65064422        2
Ti       1.31155158       0.75722960       1.21688140        3
Ti       4.39376547       0.75722960       1.21688140        4
Ti       0.00000000       1.51445425       3.65064422        5
Al       0.00000000       3.29397127       1.21688140        6
Al       2.85265853       1.64698811       3.65064422        7
