8
Lattice="5.520172832314573 -3.6196696867102117e-16 -5.373503794085441e-48 -2.7600864161572862 4.780609906065116 1.1431570288950437e-48 4.7801746314950157e-48 1.5855826947888396e-48 4.910648832804853" Properties=species:S:1:pos:R:3:tags:I:1 spacegroup="P 1" unit_cell=conventional n_minim_iter=1 energy=-9784.227112718205 free_energy=-9784.227112718205 pbc="T T T"
Ti       2.76008642       3.29867623       1.22766221        0
Ti      -1.47669006       4.03964546       3.68298662        1
Ti       1.47669007       4.03964546       3.68298662        2
Ti       1.28339636       0.74097402       1.22766221        3
Ti       4.23677648       0.74097402       1.22766221        4
Ti       0.00000000       1.48194325       3.68298662        5
Al       0.00000000       3.18707806       1.22766221        6
Al       2.76008642       1.59354142       3.68298662        7
8
Lattice="5.510420705251193 -3.6891832653014886e-16 -5.363224390464531e-48 -2.755210352625596 4.772164316287295 1.1457010635244363e-48 4.797738307467266e-48 1.581795372146706e-48 4.928045561738923" Properties=species:S:1:pos:R:3:tags:I:1 spacegroup="P 1" unit_cell=conventional n_minim_iter=2 stress="-0.06426095930234739 2.2049816958021728e-16 -3.158361512608135e-17 2.2049816958021728e-16 -0.06426095930234652 -8.881430696308102e-17 -3.158361512608135e-17 -8.881430696308102e-17 -0.06499587096090229" pbc="T T T"
Ti       2.75521036       3.29256043       1.23201139        0
Ti      -1.47383166       4.03236476       3.69603417        1
Ti       1.47383167       4.03236476       3.69603417        2
Ti       1.28137869       0.73980911       1.23201139        3
Ti       4.22904202       0.73980911       1.23201139        4
Ti       0.00000000       1.47961344       3.69603417        5
Al       0.00000000       3.18144765       1.23201139        6
Al       2.75521036       1.59072621       3.69603417        7
8
Lattice="5.506645689518219 -3.814972125839567e-16 -5.3596763075445385e-48 -2.753322844759109 4.768895056762854 -5.269181830988324e-49 4.1434615128994925e-48 9.599901473722058e-48 4.934804604272216" Properties=species:S:1:pos:R:3:tags:I:1 spacegroup="P 1" unit_cell=conventional n_minim_iter=3 stress="-0.06381212749519345 1.820562805009881e-16 -5.472867169078284e-17 1.820562805009881e-16 -0.06381212749519306 -7.177906582327408e-17 -5.472867169078284e-17 -7.177906582327408e-17 -0.060786035702428534" pbc="T T T"
Ti       2.75332285       3.28488282       1.23370115        0
Ti      -1.46812641       4.02689132       3.70110345        1
Ti       1.46812642       4.02689132       3.70110345        2
Ti       1.28519644       0.74201328       1.23370115        3
Ti       4.22144926       0.74201328       1.23370115        4
Ti       0.00000000       1.48402179       3.70110345        5
Al       0.00000000       3.17926814       1.23370115        6
Al       2.75332285       1.58963646       3.70110345        7
8
Lattice="5.508608589857123 -3.712610920956724e-16 -5.737594979372298e-48 -2.754304294928561 4.770594978321441 -2.210630733946854e-48 4.135827457755629e-48 1.053977045034503e-47 4.9312883610482015" Properties=species:S:1:pos:R:3:tags:I:1 spacegroup="P 1" unit_cell=conventional n_minim_iter=4 stress="-0.06229069778463883 -1.721094869606978e-17 -9.713947793256017e-17 -1.721094869606978e-17 -0.0622906977846393 1.1379720890153795e-18 -9.713947793256017e-17 1.1379720890153795e-18 -0.062216074299518" pbc="T T T"
Ti       2.75430430       3.28538716       1.23282209        0
Ti      -1.46807246       4.02799346       3.69846627        1
Ti       1.46807247       4.02799346       3.69846627        2
Ti       1.28623184       0.74261107       1.23282209        3
Ti       4.22237676       0.74261107       1.23282209        4
Ti       0.00000000       1.48521736       3.69846627        5
Al       0.00000000       3.18040143       1.23282209        6
Al       2.75430430       1.59020310       3.69846627        7
