4
Lattice="5.730364301441433 1.1601834993903661 1.51479405795023e-12 3.5073596122907174 4.677769696079867 2.8884931573218273e-12 -4.618861956866481 -2.918976597736184 2.0805745900525796" Properties=species:S:1:pos:R:3:tags:I:1 spacegroup="P 1" unit_cell=conventional n_minim_iter=12 pbc="T T T"
Ti       0.00000000       0.00000000       0.00000000        0
Al       4.61886196       2.91897660       0.00000000        1
Al       2.86518215       0.58009175       1.04028730        2
Al       1.75367981       2.33888485       1.04028730        3
