2
Lattice="4.809915012812447 4.553492017446943e-18 7.265723894564236e-17 4.553492017446546e-18 4.8099150128124455 -3.0622081956240636e-16 2.4049575064062236 2.4049575064062227 1.3263986721340453" Properties=species:S:1:pos:R:3 cutoff=-1.0 nneightol=1.2 n_minim_iter=2 pbc="T T T"
Si      -0.00000000      -1.20247875      -0.33159967
Si      -0.00000000       1.20247875       0.33159967
