4
Lattice="4.190758212686589 0.0 0.0 0.0 4.190758212686589 0.0 0.0 0.0 4.190758212686589" Properties=species:S:1:pos:R:3 n_minim_iter=1 stress="0.05312425310040768 -1.9936924043575746e-18 4.1868042269287745e-35 -1.9936924043575746e-18 0.05312425310040767 9.427844978134823e-20 4.1868042269287745e-35 9.427844978134823e-20 0.05312425310040767" pbc="T T T"
Al       0.00000000       0.00000000       0.00000000
Al       2.09537911       2.09537911       0.00000000
Al       2.09537911       0.00000000       2.09537911
Al       0.00000000       2.09537911       2.09537911
