4
Lattice="3.9321902899662327 0.0 0.0 0.0 3.9321902899662327 0.0 0.0 0.0 3.9321902899662327" Properties=species:S:1:pos:R:3 n_minim_iter=1 stress="-0.019400934114749243 -2.036602412669716e-18 9.212927782448332e-20 -2.036602412669716e-18 -0.019400934114749243 -3.268609127413432e-19 9.212927782448332e-20 -3.268609127413432e-19 -0.01940093411474927" pbc="T T T"
Al       0.00000000       0.00000000       0.00000000
Al       1.96609514       1.96609514       0.00000000
Al       1.96609514       0.00000000       1.96609514
Al       0.00000000       1.96609514       1.96609514
