4
Lattice="3.7515549107338066 0.0 0.0 0.0 3.7515549107338066 0.0 0.0 0.0 3.7515549107338066" Properties=species:S:1:pos:R:3 n_minim_iter=1 stress="-0.10955038521140556 -4.9160306010442185e-18 -0.0 -4.9160306010442185e-18 -0.10955038521140556 -8.213615934242725e-20 -0.0 -8.213615934242725e-20 -0.10955038521140553" pbc="T T T"
Al       0.00000000       0.00000000       0.00000000
Al       1.87577746       1.87577746       0.00000000
Al       1.87577746       0.00000000       1.87577746
Al       0.00000000       1.87577746       1.87577746
