1
Lattice="2.4270858860643134 1.1543660931740079e-17 -1.1512400398387803e-50 1.2135429430321567 2.101918034498359 -6.8000278386163465e-50 -1.569011144199494e-50 8.183929348545388e-49 2.311344729061979" Properties=species:S:1:pos:R:3 cutoff=-1.0 nneightol=1.2 n_minim_iter=1 energy=-162.46297652416249 free_energy=-162.46297652416249 pbc="T T T"
Si       0.00000000       0.00000000       0.00000000
1
Lattice="2.4205592151119757 6.444390729990898e-18 -6.961126104657604e-50 1.2102796075559878 2.096265771651493 -1.8515403960636526e-49 -7.433564964011173e-50 9.116952105703211e-49 2.323825914515767" Properties=species:S:1:pos:R:3 cutoff=-1.0 nneightol=1.2 n_minim_iter=2 stress="-0.24917583809818805 2.465690858705996e-16 1.9419522276204743e-17 2.465690858705996e-16 -0.249175838098187 5.296233348055839e-17 1.9419522276204743e-17 5.296233348055839e-17 -0.24884626915465285" pbc="T T T"
Si       0.00000000       0.00000000       0.00000000
