1
Lattice="2.6605611987193223 1.0695171935138006e-17 6.2634792934307e-51 1.3302805993596614 2.3041135864141107 -5.62220009161563e-51 -7.497029940368432e-51 4.634792549074261e-50 2.4819144333462653" Properties=species:S:1:pos:R:3 cutoff=-1.0 nneightol=1.2 n_minim_iter=1 energy=-162.83665604475075 free_energy=-162.83665604475075 pbc="T T T"
Si       0.00000000       0.00000000       0.00000000
