1
Lattice="2.4620896746100422 1.0116196554907657e-17 -1.0788756883039032e-50 1.2310448373050211 2.132232204607659 -7.416425349732384e-50 -3.872387834271566e-50 6.96439026974624e-49 2.3185451856651986" Properties=species:S:1:pos:R:3 cutoff=-1.0 nneightol=1.2 n_minim_iter=1 energy=-162.5535525558817 free_energy=-162.5535525558817 pbc="T T T"
Si       0.00000000       0.00000000       0.00000000
1
Lattice="2.452907886742555 1.1666475053036849e-17 -1.163488193585717e-50 1.2264539433712776 2.124280543062255 -6.872373990216918e-50 -3.8017131862179955e-50 6.887518349418942e-49 2.3359353484150795" Properties=species:S:1:pos:R:3 cutoff=-1.0 nneightol=1.2 n_minim_iter=2 stress="-0.2252576801402546 1.2128466315543499e-16 2.280322691524042e-18 1.2128466315543499e-16 -0.22525768014025352 1.197169413050122e-17 2.280322691524042e-18 1.197169413050122e-17 -0.233597278040953" pbc="T T T"
Si       0.00000000       0.00000000       0.00000000
