1
Lattice="2.3942467048864344 6.3743374563830365e-18 -6.885455697312658e-50 1.1971233524432172 2.073478469358836 -1.8314133628969906e-49 5.8678227146906115e-50 1.2315001215007021e-48 2.2985649364920393" Properties=species:S:1:pos:R:3 cutoff=-1.0 nneightol=1.2 n_minim_iter=1 energy=-162.37212049396686 free_energy=-162.37212049396686 pbc="T T T"
Si       0.00000000       0.00000000       0.00000000
1
Lattice="2.398127694353477 8.35335723857622e-18 -7.017564546323358e-50 1.1990638471767385 2.076839504829114 -1.8253776448253317e-49 6.324501739264475e-50 1.2206149260610336e-48 2.291131230643594" Properties=species:S:1:pos:R:3 cutoff=-1.0 nneightol=1.2 n_minim_iter=2 stress="-0.2178002960109699 4.256602357511547e-17 -3.222856070687314e-17 4.256602357511547e-17 -0.21780029601096884 -1.4594065225753877e-17 -3.222856070687314e-17 -1.4594065225753877e-17 -0.21136651209967258" pbc="T T T"
Si       0.00000000       0.00000000       0.00000000
