6
Lattice="3.90843 0.0 0.0 0.0 3.90843 0.0 0.0 0.0 8.06157" Properties=species:S:1:pos:R:3:forces:R:3 unique_starting_index=46 config_type=initial n_minim_iter=1 energy=-947.9753761434656 stress="-0.6459931916338808 -0.6459931916338808 -0.2946209004993804 1.1770982043862604e-12 4.083822608044246e-13 -2.504311792813477e-11" pbc="T T T"
Si       2.98684957       0.92158043       6.34207259      17.18980480     -17.18980480     -11.69881094
Si       0.92158043       2.98684957       6.34207259     -17.18980480      17.18980480     -11.69881094
Si       2.98684957       2.98684957       1.71949741      17.18980480      17.18980480      11.69881094
Si       0.92158043       0.92158043       1.71949741     -17.18980480     -17.18980480      11.69881094
Si       1.95421500       1.95421500       6.99577563       0.00000000      -0.00000000      20.27934354
Si       1.95421500       1.95421500       1.06579437      -0.00000000       0.00000000     -20.27934354
6
Lattice="3.9396464263856714 0.0 0.0 0.0 3.9396464263856714 0.0 0.0 0.0 8.090871885932852" Properties=species:S:1:pos:R:3:forces:R:3 unique_starting_index=46 config_type=initial n_minim_iter=2 energy=-949.6946087249154 stress="-0.5978591203993344 -0.5978591203993345 -0.27837002032544456 -1.0161062177613552e-12 -2.151963510682132e-12 -8.647907218874873e-12" pbc="T T T"
Si       3.01243809       0.92720833       6.36395038      15.93033254     -15.93033254     -10.88336751
Si       0.92720833       3.01243809       6.36395038     -15.93033254      15.93033254     -10.88336751
Si       3.01243809       3.01243809       1.72692151      15.93033254      15.93033254      10.88336751
Si       0.92720833       0.92720833       1.72692151     -15.93033254     -15.93033254      10.88336751
Si       1.96982321       1.96982321       7.02323891       0.00000000      -0.00000000      18.71518178
Si       1.96982321       1.96982321       1.06763297      -0.00000000      -0.00000000     -18.71518178
6
Lattice="4.482052378941241 0.0 0.0 0.0 4.482052378941241 0.0 0.0 0.0 8.591692524443435" Properties=species:S:1:pos:R:3:forces:R:3 unique_starting_index=46 config_type=initial n_minim_iter=3 energy=-966.8859346732789 stress="-0.12308938472351481 -0.12308938472351486 -0.09616700851144179 -2.3548751510682806e-13 -1.2423990719630121e-12 -1.875148104611321e-12" pbc="T T T"
Si       3.45882456       1.02322782       6.73787478       4.18440089      -4.18440089      -3.63542684
Si       1.02322782       3.45882456       6.73787478      -4.18440089       4.18440089      -3.63542684
Si       3.45882456       3.45882456       1.85381775       4.18440089       4.18440089       3.63542684
Si       1.02322782       1.02322782       1.85381775      -4.18440089      -4.18440089       3.63542684
Si       2.24102619       2.24102619       7.49236715      -0.00000000      -0.00000000       4.71178213
Si       2.24102619       2.24102619       1.09932537       0.00000000      -0.00000000      -4.71178213
6
Lattice="4.721098495775364 0.0 -1.6296047920002134e-47 0.0 4.721098495775364 0.0 -1.1204134910987412e-47 0.0 8.94765326946453" Properties=species:S:1:pos:R:3:forces:R:3 unique_starting_index=46 config_type=initial n_minim_iter=4 energy=-968.5659412602585 stress="-0.014460038379733484 -0.014460038379733437 0.022017101639725294 -3.783024743583408e-12 -5.629062444015664e-12 5.948068100205847e-12" pbc="T T T"
Si       3.65747425       1.06362425       7.00651259       1.19058351      -1.19058351      -0.52837167
Si       1.06362425       3.65747425       7.00651259      -1.19058351       1.19058351      -0.52837167
Si       3.65747425       3.65747425       1.94114068       1.19058351       1.19058351       0.52837166
Si       1.06362425       1.06362425       1.94114068      -1.19058351      -1.19058351       0.52837167
Si       2.36054925       2.36054925       7.81641377      -0.00000000      -0.00000000       3.75406527
Si       2.36054925       2.36054925       1.13123950      -0.00000000      -0.00000000      -3.75406527
6
Lattice="4.756319292672211 0.0 2.241107230659517e-47 0.0 4.756319292672211 0.0 7.942238427809036e-47 0.0 8.846963382243507" Properties=species:S:1:pos:R:3:forces:R:3 unique_starting_index=46 config_type=initial n_minim_iter=5 energy=-968.7725177737165 stress="-0.013827473366108789 -0.013827473366108796 0.013343818950460445 3.1200297100896755e-12 -3.91196181953248e-12 3.37922717132245e-12" pbc="T T T"
Si       3.68927081       1.06704848       6.92600803       0.94415329      -0.94415329      -0.56283656
Si       1.06704848       3.68927081       6.92600803      -0.94415329       0.94415329      -0.56283656
Si       3.68927081       3.68927081       1.92095535       0.94415329       0.94415329       0.56283656
Si       1.06704848       1.06704848       1.92095535      -0.94415329      -0.94415329       0.56283656
Si       2.37815965       2.37815965       7.74023931      -0.00000000       0.00000000       3.16040017
Si       2.37815965       2.37815965       1.10672407       0.00000000      -0.00000000      -3.16040017
6
Lattice="4.884639985477533 0.0 9.324003779988092e-47 0.0 4.884639985477533 0.0 2.16974011523348e-46 0.0 8.622576743603366" Properties=species:S:1:pos:R:3:forces:R:3 unique_starting_index=46 config_type=initial n_minim_iter=6 energy=-969.1282844439503 stress="-0.011848172586281182 -0.01184817258628117 -0.013874873595745183 -1.3518783234451756e-12 1.976986801654758e-12 1.0116577877691934e-11" pbc="T T T"
Si       3.80261681       1.08202317       6.74398765       0.30188728      -0.30188728      -0.52046823
Si       1.08202317       3.80261681       6.74398765      -0.30188728       0.30188728      -0.52046823
Si       3.80261681       3.80261681       1.87858909       0.30188728       0.30188728       0.52046823
Si       1.08202317       1.08202317       1.87858909      -0.30188728      -0.30188728       0.52046823
Si       2.44231999       2.44231999       7.57960777       0.00000000      -0.00000000       0.50647530
Si       2.44231999       2.44231999       1.04296897      -0.00000000       0.00000000      -0.50647530
6
Lattice="4.9815748781094085 5.293094012539982e-63 1.1657230826508204e-46 0.0 4.981574878109408 2.3828603048712447e-16 2.4252273710799256e-46 4.914913442978608e-16 8.82329866470711" Properties=species:S:1:pos:R:3:forces:R:3 unique_starting_index=46 config_type=initial n_minim_iter=7 energy=-969.3201939967711 stress="-0.022083965633163845 -0.02208396563316383 -0.004070658064159969 1.2510956785245085e-12 -3.176007631731507e-13 -6.353400064889276e-12" pbc="T T T"
Si       3.88195581       1.09961907       6.89606673       0.01258234      -0.01258234      -0.15281868
Si       1.09961907       3.88195581       6.89606673      -0.01258234       0.01258234      -0.15281868
Si       3.88195581       3.88195581       1.92723193       0.01258234       0.01258234       0.15281868
Si       1.09961907       1.09961907       1.92723193      -0.01258234      -0.01258234       0.15281868
Si       2.49078744       2.49078744       7.76083056      -0.00000000       0.00000000       0.13494892
Si       2.49078744       2.49078744       1.06246811       0.00000000       0.00000000      -0.13494892
6
Lattice="5.228377912709156 5.555330694047498e-63 1.1832251861808918e-46 2.0582347008929857e-65 5.2283779127091545 2.4041939174678716e-16 2.553002103525382e-46 5.158413858450146e-16 8.902293155132082" Properties=species:S:1:pos:R:3:forces:R:3 unique_starting_index=46 config_type=initial n_minim_iter=8 energy=-969.8322370284594 stress="-0.01946473848746275 -0.019464738487462697 -0.005693374786144676 -4.742206667908543e-13 1.3057817051634217e-14 1.1658818346308053e-11" pbc="T T T"
Si       4.07449475       1.15388316       6.95595981      -0.52433449       0.52433449       0.16773948
Si       1.15388316       4.07449475       6.95595981       0.52433449      -0.52433449       0.16773948
Si       4.07449475       4.07449475       1.94633334      -0.52433449      -0.52433449      -0.16773948
Si       1.15388316       1.15388316       1.94633334       0.52433449       0.52433449      -0.16773948
Si       2.61418896       2.61418896       7.83194387      -0.00000000       0.00000000      -1.25725538
Si       2.61418896       2.61418896       1.07034929      -0.00000000      -0.00000000       1.25725538
6
Lattice="5.261920702367102 5.590971057476052e-63 1.2454866955098699e-46 3.543005496321268e-64 5.261920702367102 2.408695235945294e-16 2.6929018437943793e-46 5.191507791962877e-16 8.918960719416093" Properties=species:S:1:pos:R:3:forces:R:3 unique_starting_index=46 config_type=initial n_minim_iter=9 energy=-969.9032796173668 stress="-0.017541626108748667 -0.017541626108748615 -0.0030009763977392316 -3.0513264344024583e-12 3.6892881061703926e-12 1.4516709441052653e-12" pbc="T T T"
Si       4.09935988       1.16256082       6.96925998      -0.55270583       0.55270583       0.24794424
Si       1.16256082       4.09935988       6.96925998       0.55270583      -0.55270583       0.24794424
Si       4.09935988       4.09935988       1.94970074      -0.55270583      -0.55270583      -0.24794424
Si       1.16256082       1.16256082       1.94970074       0.55270583       0.55270583      -0.24794424
Si       2.63096035       2.63096035       7.84453368      -0.00000000       0.00000000      -1.24473264
Si       2.63096035       2.63096035       1.07442704      -0.00000000      -0.00000000       1.24473264
6
Lattice="5.438386608120313 -3.7446643478501196e-63 1.3018519389162842e-46 6.357198091387367e-64 5.438386608120313 -9.748596572059507e-17 2.883016852763769e-46 -1.6414605117632358e-16 8.969434623447677" Properties=species:S:1:pos:R:3:forces:R:3 unique_starting_index=46 config_type=initial n_minim_iter=10 energy=-970.1237708181244 stress="0.0021021839599882656 0.002102183959988314 0.011891833787209824 -1.5540544761065314e-12 5.152771663582693e-12 1.0392751619546156e-11" pbc="T T T"
Si       4.22895334       1.20943326       7.01102430      -0.53027476       0.53027476       0.73453507
Si       1.20943326       4.22895334       7.01102430       0.53027477      -0.53027476       0.73453507
Si       4.22895334       4.22895334       1.95841033      -0.53027477      -0.53027477      -0.73453507
Si       1.20943326       1.20943326       1.95841033       0.53027477       0.53027477      -0.73453507
Si       2.71919330       2.71919330       7.87725973      -0.00000000       0.00000000      -1.19001702
Si       2.71919330       2.71919330       1.09217489       0.00000000       0.00000000       1.19001702
6
Lattice="5.422275964086646 -3.733571176532785e-63 1.3048334390853625e-46 5.782232536279846e-64 5.422275964086646 -9.586352865625866e-17 2.925644599927399e-46 -1.636597858938802e-16 8.820158334582342" Properties=species:S:1:pos:R:3:forces:R:3 unique_starting_index=46 config_type=initial n_minim_iter=11 energy=-970.2218249634309 stress="-0.0049329141617266035 -0.004932914161726612 0.007747665843605365 -1.9956414976757293e-12 1.0169581135024503e-12 -3.4485028027582678e-12" pbc="T T T"
Si       4.21097975       1.21129621       6.89909831      -0.51052960       0.51052960       0.63068132
Si       1.21129621       4.21097975       6.89909831       0.51052960      -0.51052960       0.63068132
Si       4.21097975       4.21097975       1.92106002      -0.51052960      -0.51052960      -0.63068132
Si       1.21129621       1.21129621       1.92106002       0.51052960       0.51052960      -0.63068132
Si       2.71113798       2.71113798       7.73845360      -0.00000000      -0.00000000      -1.31143241
Si       2.71113798       2.71113798       1.08170473       0.00000000       0.00000000       1.31143241
6
Lattice="5.449303879701849 6.2207542824862415e-61 1.3624672584347577e-46 -1.2730755508261838e-60 5.449303879701849 -4.525107332707773e-16 3.0827141076552604e-46 -9.113201732047612e-16 8.751546378392671" Properties=species:S:1:pos:R:3:forces:R:3 unique_starting_index=46 config_type=initial n_minim_iter=12 energy=-970.2861948234467 stress="-0.0025323114771399 -0.0025323114771398864 0.0077102850846299305 5.501496371542084e-12 3.133415791248413e-12 -5.75169474777296e-12" pbc="T T T"
Si       4.22813147       1.22117241       6.84834192      -0.46344220       0.46344220       0.65531691
Si       1.22117241       4.22813147       6.84834192       0.46344220      -0.46344220       0.65531691
Si       4.22813147       4.22813147       1.90320446      -0.46344220      -0.46344220      -0.65531691
Si       1.22117241       1.22117241       1.90320446       0.46344220       0.46344220      -0.65531691
Si       2.72465194       2.72465194       7.67220176      -0.00000000       0.00000000      -1.38282391
Si       2.72465194       2.72465194       1.07934462       0.00000000      -0.00000000       1.38282391
6
Lattice="5.4785691733643205 -9.562664365234418e-60 1.3695149449589157e-46 2.4198654875719498e-59 5.4785691733643205 -4.90586119630088e-16 3.166618877525361e-46 -1.0578213656340119e-15 8.609983312859018" Properties=species:S:1:pos:R:3:forces:R:3 unique_starting_index=46 config_type=initial n_minim_iter=13 energy=-970.3929850523538 stress="-0.0025612096816235563 -0.0025612096816235766 0.0031037121323658655 4.893453720664468e-12 -1.3456321315324981e-12 -1.012901600691004e-12" pbc="T T T"
Si       4.24346687       1.23510231       6.74374858      -0.35107435       0.35107435       0.51099085
Si       1.23510231       4.24346687       6.74374858       0.35107434      -0.35107434       0.51099085
Si       4.24346687       4.24346687       1.86623473      -0.35107435      -0.35107435      -0.51099085
Si       1.23510231       1.23510231       1.86623473       0.35107434       0.35107434      -0.51099085
Si       2.73928459       2.73928459       7.53504888       0.00000000      -0.00000000      -1.40121794
Si       2.73928459       2.73928459       1.07493444       0.00000000       0.00000000       1.40121794
6
Lattice="5.541288082049216 -9.653743316952132e-60 1.378555726958316e-46 2.447975692355323e-59 5.541288082049215 -1.3066167881275727e-16 3.274646422333489e-46 -3.514731773923106e-16 8.492031693065154" Properties=species:S:1:pos:R:3:forces:R:3 unique_starting_index=46 config_type=initial n_minim_iter=14 energy=-970.5012280491221 stress="0.0048512517250625 0.004851251725062472 0.00262374129764615 -1.1316835718932646e-12 8.303074707943829e-14 -1.2812536271992751e-11" pbc="T T T"
Si       4.28004719       1.26124089       6.66125023      -0.03790267       0.03790267       0.39727894
Si       1.26124089       4.28004719       6.66125023       0.03790267      -0.03790267       0.39727894
Si       4.28004719       4.28004719       1.83078146      -0.03790267      -0.03790267      -0.39727894
Si       1.26124089       1.26124089       1.83078146       0.03790267       0.03790267      -0.39727894
Si       2.77064404       2.77064404       7.40471157       0.00000000       0.00000000      -1.02323561
Si       2.77064404       2.77064404       1.08732012      -0.00000000      -0.00000000       1.02323561
6
Lattice="5.466049659726958 -1.9703112473421637e-59 1.4749586316576707e-46 2.4155240175234753e-59 5.466049659726956 -8.339166332773629e-17 3.4449069841755152e-46 -2.5363314025651826e-16 8.429475771841794" Properties=species:S:1:pos:R:3:forces:R:3 unique_starting_index=46 config_type=initial n_minim_iter=15 energy=-970.4611814235285 stress="-0.01842603610270267 -0.01842603610270259 -0.013263484213584472 -1.0796973018817991e-12 7.457500483156857e-13 -6.446566357694261e-12" pbc="T T T"
Si       4.22112144       1.24492822       6.61690970      -0.01260335       0.01260335      -0.29815203
Si       1.24492822       4.22112144       6.61690970       0.01260335      -0.01260335      -0.29815203
Si       4.22112144       4.22112144       1.81256608      -0.01260335      -0.01260335       0.29815203
Si       1.24492822       1.24492822       1.81256608       0.01260335       0.01260335       0.29815203
Si       2.73302483       2.73302483       7.33798508      -0.00000000      -0.00000000      -0.53998249
Si       2.73302483       2.73302483       1.09149070      -0.00000000      -0.00000000       0.53998249
6
Lattice="5.528389213560528 -1.9938005187357463e-59 1.6384730324306928e-46 2.442788025003185e-59 5.5283892135605255 2.187669421670632e-16 3.7993268976755826e-46 4.0814870595175395e-16 8.498567384232192" Properties=species:S:1:pos:R:3:forces:R:3 unique_starting_index=46 config_type=initial n_minim_iter=16 energy=-970.5309643211522 stress="-0.0005697625609923561 -0.0005697625609923758 0.002061057594279373 -3.0289652842206015e-12 -1.4401971425716128e-12 2.4280491426403223e-12" pbc="T T T"
Si       4.26920183       1.25918738       6.67034160       0.02399803      -0.02399803       0.25843117
Si       1.25918738       4.26920183       6.67034160      -0.02399803       0.02399803       0.25843117
Si       4.26920183       4.26920183       1.82822579       0.02399803       0.02399803      -0.25843117
Si       1.25918738       1.25918738       1.82822579      -0.02399803      -0.02399803      -0.25843117
Si       2.76419461       2.76419461       7.39667580       0.00000000      -0.00000000      -0.61464210
Si       2.76419461       2.76419461       1.10189159      -0.00000000      -0.00000000       0.61464210
