4
Lattice="4.250634276730445 0.0 0.0 0.0 4.250634276730445 0.0 0.0 0.0 4.250634276730445" Properties=species:S:1:pos:R:3 n_minim_iter=1 stress="0.06300903464814611 1.1525023175609485e-18 -0.0 1.1525023175609485e-18 0.06300903464814613 3.839882694219494e-19 -0.0 3.839882694219494e-19 0.06300903464814626" pbc="T T T"
Al       0.00000000       0.00000000       0.00000000
Al       2.12531714       2.12531714       0.00000000
Al       2.12531714       0.00000000       2.12531714
Al       0.00000000       2.12531714       2.12531714
