1
Lattice="2.9069466989744894 1.3695231273071912e-16 -1.5908843887669259e-49 1.4534733494872445 2.5174896887592233 2.529081198944637e-49 6.477866778713948e-49 -6.771478320545256e-48 2.602831204924198" Properties=species:S:1:pos:R:3 cutoff=-1.0 nneightol=1.2 n_minim_iter=1 energy=-162.62717743271003 free_energy=-162.62717743271003 pbc="T T T"
Si       0.00000000       0.00000000       0.00000000
