1
Lattice="2.7394081563823836 3.135833941560343e-17 1.689051208453045e-50 1.3697040781911918 2.3723970547614384 1.6383037047317054e-50 -9.512852197015043e-50 -3.728859860692582e-50 2.530262027397566" Properties=species:S:1:pos:R:3 cutoff=-1.0 nneightol=1.2 n_minim_iter=1 energy=-162.80509008198806 free_energy=-162.80509008198806 pbc="T T T"
Si       0.00000000       0.00000000       0.00000000
