1
Lattice="2.546099455115137 5.626664840126138e-17 1.258789894038313e-49 1.2730497275575685 2.2049868086914257 2.466194021075654e-49 -9.108852059692474e-49 -9.995466805199263e-49 2.3838461730445273" Properties=species:S:1:pos:R:3 cutoff=-1.0 nneightol=1.2 n_minim_iter=1 energy=-162.752329715266 free_energy=-162.752329715266 pbc="T T T"
Si       0.00000000       0.00000000       0.00000000
