1
Lattice="2.6922567436852316 6.861684752969412e-17 4.1742181486951614e-50 1.3461283718426158 2.331562733541381 4.2141034321729457e-50 -2.553204604430226e-51 1.1329905209813487e-50 2.4975363669225077" Properties=species:S:1:pos:R:3 cutoff=-1.0 nneightol=1.2 n_minim_iter=2 pbc="T T T"
Si       0.00000000       0.00000000       0.00000000
