2
Lattice="2.827754037968688 2.4975235827567377e-117 4.041584733093168e-51 -5.776459669209974e-102 2.827754037968688 4.041584733093168e-51 -5.840487956742089e-51 -5.840487956742088e-51 4.086383063592253" Properties=species:S:1:pos:R:3:tags:I:1 spacegroup="P 1" unit_cell=conventional n_minim_iter=1 energy=-1704.2454763978317 free_energy=-1704.2454763978317 pbc="T T T"
Ti       1.41387702       1.41387702       2.04319154        0
Al       0.00000000       0.00000000       0.00000001        1
