4
Lattice="1.7399782268287447 -3.0137306929309897 -1.474769197810758e-17 1.739978226828744 3.0137306929309897 1.4747691978107765e-17 -3.1021339091661077e-31 -2.8572105754552924e-17 5.838786991346914" Properties=species:S:1:pos:R:3 cutoff=-1.0 nneightol=1.2 n_minim_iter=1 energy=-650.6669137923983 free_energy=-650.6669137923983 pbc="T T T"
Si       1.73997823       1.00457690       0.37996469
Si       1.73997823      -1.00457690       3.29935818
Si       1.73997823       1.00457690       2.53942881
Si       1.73997823      -1.00457690      -0.37996469
4
Lattice="1.7395843429170679 -3.0130484659836823 -1.420696068168067e-17 1.7395843429170672 3.0130484659836823 1.4206960681680876e-17 -2.542463876615871e-31 -2.962583711960339e-17 5.841431375489112" Properties=species:S:1:pos:R:3 cutoff=-1.0 nneightol=1.2 n_minim_iter=2 stress="-0.20084615616300486 -1.1184293682526582e-16 -4.5787876918538645e-17 -1.1184293682526582e-16 -0.20084615616300341 -1.813394577538509e-16 -4.5787876918538645e-17 -1.813394577538509e-16 -0.20008483850286787" pbc="T T T"
Si       1.73958434       1.00434949       0.38049883
Si       1.73958434      -1.00434949       3.30121452
Si       1.73958434       1.00434949       2.54021685
Si       1.73958434      -1.00434949      -0.38049883
4
Lattice="1.7395277795341286 -3.0129504953305846 -1.4788698671602824e-17 1.739527779534128 3.0129504953305846 1.4788698671603073e-17 -2.5908373878463326e-31 -2.849953144837072e-17 5.841811267659385" Properties=species:S:1:pos:R:3 cutoff=-1.0 nneightol=1.2 n_minim_iter=3 stress="-0.2004507965684986 -1.5882294669822763e-16 -1.612355794625726e-16 -1.5882294669822763e-16 -0.20045079656849737 -2.732627063513813e-16 -1.612355794625726e-16 -2.732627063513813e-16 -0.20078802026750672" pbc="T T T"
Si       1.73952778       1.00431683       0.38113906
Si       1.73952778      -1.00431683       3.30204470
Si       1.73952778       1.00431683       2.53976657
Si       1.73952778      -1.00431683      -0.38113906
