4
Lattice="1.9903589363072727 -3.447402802982943 -1.9929936273703224e-17 1.9903589363072718 3.447402802982943 1.9929936273703206e-17 3.6530160017646874e-32 -3.7834914304979664e-17 6.544536210971562" Properties=species:S:1:pos:R:3 cutoff=-1.0 nneightol=1.2 n_minim_iter=1 energy=-652.4693841658775 free_energy=-652.4693841658775 pbc="T T T"
Si       1.99035894       1.14913427       0.40825533
Si       1.99035894      -1.14913427       3.68052344
Si       1.99035894       1.14913427       2.86401277
Si       1.99035894      -1.14913427      -0.40825533
