2
Lattice="2.9378963198759656 -2.893166026999652e-17 2.9378963198759656 2.9378963198759656 2.9378963198759656 -4.362202690042249e-17 4.55052347358072e-17 2.9378963198759656 2.9378963198759656" Properties=species:S:1:pos:R:3 n_minim_iter=1 energy=-325.90880886413544 free_energy=-325.90880886413544 pbc="T T T"
Si       0.00000000       0.00000000       0.00000000
Si       1.46894816       1.46894816       1.46894816
