2
Lattice="2.7907495839527976 -2.748259641271658e-17 2.7907495839527976 2.7907495839527976 2.7907495839527976 -4.1437185036084374e-17 4.322607099762793e-17 2.7907495839527976 2.7907495839527976" Properties=species:S:1:pos:R:3 n_minim_iter=1 energy=-326.3094591850548 free_energy=-326.3094591850548 pbc="T T T"
Si       0.00000000       0.00000000       0.00000000
Si       1.39537479       1.39537479       1.39537479
