14
Lattice="9.8379438453826 0.006397004198671133 -3.25775054265373e-16 -0.2843906584472153 7.354771298008575 -6.391203933486092e-14 -5.836799452114225e-16 -4.270607945962061e-13 51.57843365123684" Properties=species:S:1:pos:R:3 unique_starting_index=0 config_type=initial n_minim_iter=5 energy=-2265.9062632320693 free_energy=-2265.9062632320693 pbc="T T T"
Si       2.39480305       1.90406382      40.38977094
Si       2.38197354       1.77652033      14.60055412
Si       7.15875014       5.45710448      11.18866271
Si       7.17157964       5.58464798      36.97787953
Si       7.93810047       1.91180120      18.11683505
Si       6.67661997       1.77517996      43.90605188
Si       1.61545272       5.44936710      33.46159860
Si       2.87693322       5.58598835       7.67238177
Si       4.08150022       1.86174656      19.85108794
Si       0.69527638       1.81883759      45.64030477
Si       5.47205297       5.49942174      31.72734571
Si       8.85827681       5.54233071       5.93812888
Si       4.91897192       0.00319850      -0.00000000
Si      -0.14219533       3.67738565      25.78921683
