2
Lattice="3.056479496348784 0.0 0.0 0.0 3.056479496348784 0.0 0.0 0.0 3.056479496348784" Properties=species:S:1:pos:R:3 Minim_Constant_Volume=F n_minim_iter=1 stress="-0.08206694610098718 2.82677276547214e-18 3.9899780687986796e-19 2.82677276547214e-18 -0.0820669461009872 -6.0752729611207064e-18 3.9899780687986796e-19 -6.0752729611207064e-18 -0.08206694610098719" pbc="T T T"
Ti       0.00000000       0.00000000       0.00000000
Ti       1.52823975       1.52823975       1.52823975
