2
Lattice="3.410180143510716 0.0 0.0 0.0 3.410180143510716 0.0 0.0 -4.930380657631324e-32 3.410180143510716" Properties=species:S:1:pos:R:3 Minim_Constant_Volume=F n_minim_iter=1 stress="-0.04751907243785216 3.519730031656638e-19 2.001241393456685e-20 3.519730031656638e-19 -0.04751907243785214 -0.0 2.001241393456685e-20 -0.0 -0.04751907243785198" pbc="T T T"
Ti       0.00000000       0.00000000       0.00000000
Ti       1.70509007       1.70509007       1.70509007
