2
Lattice="3.1120639927938707 0.0 0.0 0.0 3.1120639927938707 0.0 0.0 0.0 3.1120639927938707" Properties=species:S:1:pos:R:3 Minim_Constant_Volume=F n_minim_iter=1 stress="-0.022449493440044255 4.040918359481816e-18 -7.73147064417393e-19 4.040918359481816e-18 -0.022449493440044266 4.696653327635626e-19 -7.73147064417393e-19 4.696653327635626e-19 -0.02244949344004422" pbc="T T T"
Ti       0.00000000       0.00000000       0.00000000
Ti       1.55603200       1.55603200       1.55603200
