2
Lattice="2.651291888710429 3.6259269329922034e-17 2.651291888710429 2.651291888710429 2.651291888710429 1.8770528455706558e-16 6.09214666357574e-17 2.651291888710429 2.651291888710429" Properties=species:S:1:pos:R:3 n_minim_iter=1 energy=-326.2614362229964 free_energy=-326.2614362229964 pbc="T T T"
Si       0.00000000       0.00000000      -0.00000000
Si       1.32564594       1.32564594       1.32564594
