4
Lattice="1.734378318473886 -3.0040313671426455 1.0963656690857474e-17 1.734378318473886 3.0040313671426455 -1.0963656690857484e-17 1.614228217878332e-32 2.2105890170372426e-17 6.056992602275228" Properties=species:S:1:pos:R:3 cutoff=-1.0 nneightol=1.2 n_minim_iter=1 energy=-650.9241308311689 free_energy=-650.9241308311689 pbc="T T T"
Si       1.73437832       1.00134379       0.42969658
Si       1.73437832      -1.00134379       3.45819288
Si       1.73437832       1.00134379       2.59879972
Si       1.73437832      -1.00134379      -0.42969658
4
Lattice="1.725335588733748 -2.9883688997936124 3.76667844960278e-17 1.725335588733748 2.9883688997936124 -3.766678449602779e-17 2.473137519050838e-32 -3.161823637463627e-17 6.120650108404225" Properties=species:S:1:pos:R:3 cutoff=-1.0 nneightol=1.2 n_minim_iter=2 stress="-0.1870211385326824 4.683435121952544e-16 -2.0902302877024122e-16 4.683435121952544e-16 -0.18702113853268548 -4.464302520580289e-17 -2.0902302877024122e-16 -4.464302520580289e-17 -0.17448007031320772" pbc="T T T"
Si       1.72533559       0.99612297       0.43994588
Si       1.72533559      -0.99612297       3.50027093
Si       1.72533559       0.99612297       2.62037917
Si       1.72533559      -0.99612297      -0.43994588
4
Lattice="1.7191110348425527 -2.9775876561996117 5.53128193013422e-17 1.7191110348425527 2.9775876561996117 -5.531281930134219e-17 3.2995786776460763e-32 -6.642668276570776e-17 6.165053627235054" Properties=species:S:1:pos:R:3 cutoff=-1.0 nneightol=1.2 n_minim_iter=3 stress="-0.15977232944698697 -2.409776394305657e-16 4.17221509103519e-17 -2.409776394305657e-16 -0.15977232944698866 6.533747086664587e-17 4.17221509103519e-17 6.533747086664587e-17 -0.1541601249751918" pbc="T T T"
Si       1.71911103       0.99252922       0.46173817
Si       1.71911103      -0.99252922       3.54426499
Si       1.71911103       0.99252922       2.62078864
Si       1.71911103      -0.99252922      -0.46173817
4
Lattice="1.7193837933754912 -2.9780600878368593 7.792301649704958e-17 1.7193837933754912 2.9780600878368593 -7.792301649704958e-17 2.4108404562998093e-32 -1.1206127477973853e-16 6.163097766525736" Properties=species:S:1:pos:R:3 cutoff=-1.0 nneightol=1.2 n_minim_iter=4 stress="-0.15518868101975997 -2.139211698299556e-16 4.782380934388165e-17 -2.139211698299556e-16 -0.1551886810197605 -7.984713029269158e-16 4.782380934388165e-17 -7.984713029269158e-16 -0.15582618825131656" pbc="T T T"
Si       1.71938379       0.99268670       0.46389191
Si       1.71938379      -0.99268670       3.54544079
Si       1.71938379       0.99268670       2.61765698
Si       1.71938379      -0.99268670      -0.46389191
