4
Lattice="1.910609929698347 -3.3092734716831367 -8.328722125854177e-18 1.9106099296983465 3.3092734716831367 8.328722125854181e-18 -1.1599141396017611e-32 -1.580335448554986e-17 6.279189168803169" Properties=species:S:1:pos:R:3 cutoff=-1.0 nneightol=1.2 n_minim_iter=1 energy=-652.6356371189097 free_energy=-652.6356371189097 pbc="T T T"
Si       1.91060993       1.10309116       0.39314861
Si       1.91060993      -1.10309116       3.53274319
Si       1.91060993       1.10309116       2.74644598
Si       1.91060993      -1.10309116      -0.39314861
4
Lattice="1.9110415209111797 -3.310021009591864 -8.715595063035284e-18 1.9110415209111793 3.310021009591864 8.715595063035275e-18 -1.2609652155770695e-32 -1.506573699383138e-17 6.2763532944172375" Properties=species:S:1:pos:R:3 cutoff=-1.0 nneightol=1.2 n_minim_iter=2 stress="-0.012730778037973059 -3.173426774057653e-16 -3.13357124292964e-16 -3.173426774057653e-16 -0.012730778037972507 2.712885388449032e-17 -3.13357124292964e-16 2.712885388449032e-17 -0.012869079297863375" pbc="T T T"
Si       1.91104152       1.10334034       0.39314865
Si       1.91104152      -1.10334034       3.53132530
Si       1.91104152       1.10334034       2.74502800
Si       1.91104152      -1.10334034      -0.39314865
