4
Lattice="1.7006933588005495 -2.9456873055375175 7.707596009967535e-17 1.7006933588005497 2.9456873055375175 -7.707596009967535e-17 -1.0481332050990348e-32 1.5950876192299262e-16 6.096102267307917" Properties=species:S:1:pos:R:3 cutoff=-1.0 nneightol=1.2 n_minim_iter=1 energy=-650.615447671745 free_energy=-650.615447671745 pbc="T T T"
Si       1.70069336       0.98189577       0.45884920
Si       1.70069336      -0.98189577       3.50690034
Si       1.70069336       0.98189577       2.58920193
Si       1.70069336      -0.98189577      -0.45884920
4
Lattice="1.6853066461645747 -2.919036737490547 7.165443546848729e-17 1.685306646164575 2.919036737490547 -7.165443546848727e-17 -1.224223698349636e-32 1.7221138511463856e-16 6.2079242464149855" Properties=species:S:1:pos:R:3 cutoff=-1.0 nneightol=1.2 n_minim_iter=2 stress="-0.16654268491514929 -5.408914054015575e-17 1.763141084408301e-16 -5.408914054015575e-17 -0.16654268491514954 5.695769133503826e-17 1.763141084408301e-16 5.695769133503826e-17 -0.12450942418509106" pbc="T T T"
Si       1.68530665       0.97301225       0.47725166
Si       1.68530665      -0.97301225       3.58121378
Si       1.68530665       0.97301225       2.62671046
Si       1.68530665      -0.97301225      -0.47725166
4
Lattice="1.6777185380386286 -2.9058937486830825 8.15200847010465e-17 1.6777185380386288 2.9058937486830825 -8.152008470104649e-17 -4.099274971603862e-33 1.5237362970181895e-16 6.264206545842231" Properties=species:S:1:pos:R:3 cutoff=-1.0 nneightol=1.2 n_minim_iter=3 stress="-0.08109877972368414 5.119768895936487e-17 -4.369227197573661e-16 5.119768895936487e-17 -0.08109877972368465 -2.5291603279582994e-16 -4.369227197573661e-16 -2.5291603279582994e-16 -0.07877544135308244" pbc="T T T"
Si       1.67771854       0.96863125       0.51334654
Si       1.67771854      -0.96863125       3.64544981
Si       1.67771854       0.96863125       2.61875674
Si       1.67771854      -0.96863125      -0.51334654
4
Lattice="1.677367661235831 -2.9052860122334385 8.463206810440436e-17 1.6773676612358313 2.9052860122334385 -8.463206810440435e-17 -3.33179276957782e-33 1.4597927191232135e-16 6.266827551008966" Properties=species:S:1:pos:R:3 cutoff=-1.0 nneightol=1.2 n_minim_iter=4 stress="-0.07616117720719331 -5.068289649654067e-17 -7.218426836553052e-16 -5.068289649654067e-17 -0.07616117720719454 3.4597281128582697e-16 -7.218426836553052e-16 3.4597281128582697e-16 -0.07753291369034088" pbc="T T T"
Si       1.67736766       0.96842867       0.51520447
Si       1.67736766      -0.96842867       3.64861825
Si       1.67736766       0.96842867       2.61820930
Si       1.67736766      -0.96842867      -0.51520447
4
Lattice="1.677418801250288 -2.9053745893367777 8.1118299607587e-17 1.6774188012502882 2.9053745893367777 -8.111829960758697e-17 1.2724931245404591e-32 1.532447900071246e-16 6.266445439200105" Properties=species:S:1:pos:R:3 cutoff=-1.0 nneightol=1.2 n_minim_iter=5 stress="-0.0775864905832458 -3.0991294318723196e-16 6.577697731136632e-16 -3.0991294318723196e-16 -0.07758649058324493 -6.305493323035762e-17 6.577697731136632e-16 -6.305493323035762e-17 -0.07752467257302792" pbc="T T T"
Si       1.67741880       0.96845820       0.51471970
Si       1.67741880      -0.96845820       3.64794242
Si       1.67741880       0.96845820       2.61850302
Si       1.67741880      -0.96845820      -0.51471970
