14
Lattice="23.620296053192327 0.27814736038297244 -1.75149988341609e-17 -0.4102434913428483 3.5161192057596913 -2.2141077920315263e-16 -3.696522138674505e-27 3.2039119501720345e-15 50.879800803320556" Properties=species:S:1:pos:R:3 unique_starting_index=0 config_type=initial n_minim_iter=1 energy=-2237.5338438674657 free_energy=-2237.5338438674657 pbc="T T T"
Si       6.29985852       0.98520284      39.26043785
Si       5.30516776       0.91193045      13.82053745
Si      16.91019404       2.80906373      11.61936295
Si      17.90488480       2.88233612      37.05926336
Si      20.20263338       1.16252021      17.70663434
Si      15.02268896       1.01276043      43.14653474
Si       3.00741919       2.63174635      33.17316647
Si       8.18736360       2.78150614       7.73326607
Si       9.31752498       0.99363806      20.02826150
Si       2.28750130       0.90349522      45.46816190
Si      13.89252758       2.80062850      30.85153931
Si      20.92255126       2.89077135       5.41163891
Si      11.81014803       0.13907368       0.00000000
Si      -0.20512175       1.75805960      25.43990040
