4
Lattice="1.9193831003487796 -3.3244690489931594 0.0 1.9193831003487798 3.3244690489931594 0.0 0.0 0.0 6.268678969999999" Properties=species:S:1:pos:R:3 cutoff=-1.0 nneightol=1.2 n_minim_iter=1 energy=-652.6482372520362 free_energy=-652.6482372520362 pbc="T T T"
Si       1.91938310       1.10815635       0.39179244
Si       1.91938310      -1.10815635       3.52613192
Si       1.91938310       1.10815635       2.74254705
Si       1.91938310      -1.10815635      -0.39179244
4
Lattice="1.9300453912080517 -3.342936678486496 4.1371751185214134e-18 1.9300453912080517 3.342936678486496 -4.1371751185214134e-18 3.2026026278113643e-34 -7.801132234495291e-18 6.324534342254634" Properties=species:S:1:pos:R:3 cutoff=-1.0 nneightol=1.2 n_minim_iter=2 stress="0.0005315539108746612 -2.162009309898892e-17 -6.430124124095227e-17 -2.162009309898892e-17 0.0005315539108741643 -1.6108155756024229e-16 -6.430124124095227e-17 -1.6108155756024229e-16 -0.0006774360886846164" pbc="T T T"
Si       1.93004539       1.11431223       0.39496208
Si       1.93004539      -1.11431223       3.55722925
Si       1.93004539       1.11431223       2.76730509
Si       1.93004539      -1.11431223      -0.39496208
