1
Lattice="2.7875006186444535 1.1633450915711941e-16 -5.613318669691655e-50 1.3937503093222268 2.414046348810935 4.214689960951553e-49 -3.0805070734522555e-50 -1.954504693253135e-48 2.547608603103944" Properties=species:S:1:pos:R:3 cutoff=-1.0 nneightol=1.2 n_minim_iter=1 energy=-162.76644084939062 free_energy=-162.76644084939062 pbc="T T T"
Si       0.00000000       0.00000000       0.00000000
