1
Lattice="2.4863583228214186 1.1440296076495295e-16 -7.936234603163951e-50 1.2431791614107095 2.153249470474218 -3.6430688141439883e-50 8.106638375156207e-49 -2.968004683827799e-48 2.3482084309727593" Properties=species:S:1:pos:R:3 cutoff=-1.0 nneightol=1.2 n_minim_iter=1 energy=-162.63952396999912 free_energy=-162.63952396999912 pbc="T T T"
Si       0.00000000       0.00000000       0.00000000
