20
Lattice="1.6452241531098604 3.357542417099384e-16 1.782329726777555e-14 -1.786621224057665e-15 8.754594954060714 3.744514262124492e-15 -6.431403989459833e-13 -2.539231215266621e-14 59.366687447877666" Properties=species:S:1:pos:R:3 unique_starting_index=4 config_type=initial n_minim_iter=1 energy=-3605.3271238380894 free_energy=-3605.3271238380894 pbc="T T T"
Si       1.43497479       4.36773695      36.26936467
Si       1.43497479       4.38685801      23.09732278
Si       0.20446676       3.65792209      31.76943731
Si       0.20446676       5.09667287      27.59725014
Si       0.21024937      -0.00956053      52.78066651
Si       0.21024937       8.76415548       6.58602094
Si       1.44075739       8.03521956      57.28059386
Si       1.44075739       0.71937539       2.08609359
Si       1.04216132       6.52371690      10.62404518
Si       1.04216132       2.23087805      48.74264226
Si       1.02205013       6.62831487      48.50007793
Si       1.02205013       2.12628009      10.86660952
Si       0.60306284       2.14641943      19.05929854
Si       0.60306284       6.60817553      40.30738891
Si       0.62317402       2.25101739      40.54995324
Si       0.62317402       6.50357756      18.81673421
Si       1.14924826       4.32511417      54.41082888
Si       1.14924826       4.42948078       4.95585857
Si       0.49597589       8.80677826      24.72748516
Si       0.49597589      -0.05218331      34.63920229
20
Lattice="1.658039086722929 3.3836948918826495e-16 1.79621259926159e-14 -1.78502057591713e-15 8.74675164292743 4.419005111076947e-15 -6.425108749272923e-13 -2.0772279145241475e-14 59.30857765455806" Properties=species:S:1:pos:R:3 unique_starting_index=4 config_type=initial n_minim_iter=2 stress="0.006118172452994416 2.9610420497208384e-16 8.686928070889818e-17 2.9610420497208384e-16 0.008960452518461445 -7.021825959233375e-17 8.686928070889818e-17 -7.021825959233375e-17 0.008657012455498906" pbc="T T T"
Si       1.44616149       4.36380482      36.23365448
Si       1.44616149       4.38294682      23.07492317
Si       0.20603033       3.65437031      31.73847049
Si       0.20603033       5.09238133      27.57010716
Si       0.21187760      -0.00957100      52.72921200
Si       0.21187760       8.75632264       6.57936566
Si       1.45200876       8.02774613      57.22439599
Si       1.45200876       0.71900551       2.08418167
Si       1.05026268       6.51755418      10.61373613
Si       1.05026268       2.22919746      48.69484152
Si       1.03002852       6.62212984      48.45258159
Si       1.03002852       2.12462180      10.85599607
Si       0.60777640       2.14417836      19.04055269
Si       0.60777640       6.60257328      40.26802496
Si       0.62801056       2.24875402      40.51028490
Si       0.62801056       6.49799762      18.79829276
Si       1.15817907       4.32147450      54.35764047
Si       1.15817907       4.42527714       4.95093719
Si       0.49986002       8.79865296      24.70335164
Si       0.49986002      -0.05190132      34.60522601
20
Lattice="1.6575176977313808 3.382630851065624e-16 1.7956477600590273e-14 -1.7817623974544996e-15 8.730786293173054 5.657495165117759e-15 -6.413696845693849e-13 -1.2275277911919965e-14 59.20323721659882" Properties=species:S:1:pos:R:3 unique_starting_index=4 config_type=initial n_minim_iter=3 stress="-0.010253951326158096 1.3088040101189505e-16 -2.310492623804048e-16 1.3088040101189505e-16 -0.06855136754094512 -2.6207180495688765e-15 -2.310492623804048e-16 -2.6207180495688765e-15 -0.042401589516801126" pbc="T T T"
Si       1.44573574       4.35572381      36.16813011
Si       1.44573574       4.37506248      23.03510711
Si       0.20580391       3.64615651      31.68279675
Si       0.20580391       5.08462979      27.52044046
Si       0.21178196      -0.00966933      52.63672572
Si       0.21178196       8.74045563       6.56651150
Si       1.45171379       8.01154965      57.12205907
Si       1.45171379       0.71923664       2.08117814
Si       1.04986259       6.50388140      10.59544808
Si       1.04986259       2.22690490      48.60778914
Si       1.02978217       6.60868458      48.36635579
Si       1.02978217       2.12210172      10.83688143
Si       0.60765510       2.13848825      19.00617053
Si       0.60765510       6.59229804      40.19706669
Si       0.62773553       2.24329143      40.43850003
Si       0.62773553       6.48749486      18.76473718
Si       1.15767452       4.31488022      54.26149885
Si       1.15767452       4.41590607       4.94173836
Si       0.49984318       8.78129922      24.65988024
Si       0.49984318      -0.05051292      34.54335697
20
Lattice="1.6565180007199294 3.380590688262945e-16 1.794564752799567e-14 -1.795576938493928e-15 8.798478711493466 6.343598571553091e-15 -6.368498852466803e-13 -7.451884448122493e-15 58.78602580497308" Properties=species:S:1:pos:R:3 unique_starting_index=4 config_type=initial n_minim_iter=4 stress="-0.02177704258265067 -6.740664777188887e-16 1.4383194737946296e-17 -6.740664777188887e-16 0.0628909382166704 -1.5383539453053912e-15 1.4383194737946296e-17 -1.5383539453053912e-15 -0.06429002202202067" pbc="T T T"
Si       1.44554911       4.38709310      35.88876985
Si       1.44554911       4.41138562      22.89725595
Si       0.20218427       3.64117689      31.47391924
Si       0.20218427       5.15730182      27.31210657
Si       0.21096889      -0.01214626      52.29026885
Si       0.21096889       8.81062497       6.49575695
Si       1.45433373       8.04041625      56.70511947
Si       1.45433373       0.75806246       2.08090634
Si       1.04766564       6.51610492      10.53301471
Si       1.04766564       2.28237379      48.25301110
Si       1.03088929       6.63079597      48.02159856
Si       1.03088929       2.16768274      10.76442725
Si       0.60885236       2.11686556      18.85999819
Si       0.60885236       6.68161315      39.92602761
Si       0.62562871       2.23155661      40.15744015
Si       0.62562871       6.56692210      18.62858565
Si       1.15400166       4.37588883      53.88780529
Si       1.15400166       4.42258989       4.89822052
Si       0.50251634       8.82182924      24.49479239
Si       0.50251634      -0.02335053      34.29123342
20
Lattice="1.6567298117899063 3.381022948298599e-16 1.7947942152505026e-14 -1.7910135226245683e-15 8.776117588157792 6.1102252314431255e-15 -6.394968699981253e-13 -9.584840066395546e-15 59.03036237079333" Properties=species:S:1:pos:R:3 unique_starting_index=4 config_type=initial n_minim_iter=5 stress="-0.020209984385951577 -2.967386205163631e-16 -8.400264174512912e-16 -2.967386205163631e-16 0.021688484079192764 1.3659807465792477e-15 -8.400264174512912e-16 1.3659807465792477e-15 -0.011510879168659753" pbc="T T T"
Si       1.44582611       4.37600810      36.03612738
Si       1.44582611       4.40010948      22.99423499
Si       0.20184209       3.62882314      31.60562662
Si       0.20184209       5.14729444      27.42473575
Si       0.21090370      -0.01205069      52.50941617
Si       0.21090370       8.78816828       6.52094620
Si       1.45488772       8.01688194      56.93991694
Si       1.45488772       0.75923565       2.09044543
Si       1.04765606       6.49673618      10.57786681
Si       1.04765606       2.27938141      48.45249556
Si       1.03117982       6.61197059      48.22088851
Si       1.03117982       2.16414700      10.80947386
Si       0.60907375       2.10867739      18.93731437
Si       0.60907375       6.66744020      40.09304800
Si       0.62554999       2.22391179      40.32465505
Si       0.62554999       6.55220580      18.70570732
Si       1.15385817       4.36707245      54.11251392
Si       1.15385817       4.40904514       4.91784845
Si       0.50287164       8.79710394      24.59733274
Si       0.50287164      -0.02098635      34.43302963
20
Lattice="1.657270469123546 3.382126311587027e-16 1.7953799285321538e-14 -1.7914093377063137e-15 8.778057115503259 6.839596792040734e-15 -6.393152887467631e-13 -4.628946458344905e-15 59.013601058001626" Properties=species:S:1:pos:R:3 unique_starting_index=4 config_type=initial n_minim_iter=6 stress="-0.00297583211864683 -5.497401090764678e-16 -1.3274717054034208e-15 -5.497401090764678e-16 -0.012609859329427446 -3.1533434061916236e-15 -1.3274717054034208e-15 -3.1533434061916236e-15 -0.013725337856315903" pbc="T T T"
Si       1.45079338       4.40586044      36.01984080
Si       1.45079338       4.37219668      22.99376025
Si       0.18909256       3.55401090      31.57331526
Si       0.18909256       5.22404621      27.44028579
Si       0.20647709       0.01683188      52.50056078
Si       0.20647709       8.76122523       6.51304028
Si       1.46817790       7.94303946      56.94708632
Si       1.46817790       0.83501765       2.06651473
Si       1.04447940       6.50780068      10.58955806
Si       1.04447940       2.27025644      48.42404300
Si       1.03543700       6.64323813      48.20769290
Si       1.03543700       2.13481899      10.80590816
Si       0.61279107       2.11877212      18.91724247
Si       0.61279107       6.65928499      40.09635859
Si       0.62183347       2.25420957      40.31270869
Si       0.62183347       6.52384755      18.70089237
Si       1.14551265       4.40505276      54.10945955
Si       1.14551265       4.37300436       4.90414151
Si       0.51175782       8.76203292      24.60265902
Si       0.51175782       0.01602420      34.41094204
20
Lattice="1.6573616325697345 3.3823123562280973e-16 1.795478689129552e-14 -1.792210936138791e-15 8.781985015550795 7.55214735308181e-15 -6.376207648672319e-13 3.259408868288071e-16 58.85718378162943" Properties=species:S:1:pos:R:3 unique_starting_index=4 config_type=initial n_minim_iter=7 stress="0.0019439609939462387 -1.0260980240210715e-15 -1.5518153128674848e-15 -1.0260980240210715e-15 -0.021823465266227283 1.8952519738912728e-15 -1.5518153128674848e-15 1.8952519738912728e-15 0.003651120399270546" pbc="T T T"
Si       1.45469475       4.45911213      35.92114023
Si       1.45469475       4.32287288      22.93604355
Si       0.17998619       3.49687839      31.43632081
Si       0.17998619       5.28510662      27.42086297
Si       0.20266688       0.06811962      52.36463544
Si       0.20266688       8.71386539       6.49254834
Si       1.47737544       7.88787090      56.84945486
Si       1.47737544       0.89411411       2.00772892
Si       1.04117711       6.49661195      10.57574792
Si       1.04117711       2.28537306      48.28143586
Si       1.03908191       6.65601954      48.08530555
Si       1.03908191       2.12596547      10.77187823
Si       0.61618453       2.10561945      18.85284397
Si       0.61618453       6.67636557      40.00433981
Si       0.61827973       2.26502703      40.20047012
Si       0.61827973       6.51695798      18.65671366
Si       1.14005225       4.40705248      53.95798849
Si       1.14005225       4.37493254       4.89919529
Si       0.51730938       8.76592505      24.52939660
Si       0.51730938       0.01605997      34.32778718
20
Lattice="1.6573529371017166 3.3822946106808244e-16 1.7954692690203988e-14 -1.794791244964059e-15 8.794628746810979 8.498786296164305e-15 -6.368808406668709e-13 6.807188926282412e-15 58.788883222669824" Properties=species:S:1:pos:R:3 unique_starting_index=4 config_type=initial n_minim_iter=8 stress="0.00782668494309991 -2.6375879481602568e-15 -1.587152271396937e-15 -2.6375879481602568e-15 -0.009047591644210762 1.793158158051723e-15 -1.587152271396937e-15 1.793158158051723e-15 0.018217429567340616" pbc="T T T"
Si       1.45372446       4.48843188      35.86340068
Si       1.45372446       4.30619687      22.92548254
Si       0.17986466       3.46231402      31.39311324
Si       0.17986466       5.33231472      27.39576998
Si       0.20362848       0.09111750      52.31992415
Si       0.20362848       8.70351124       6.46895907
Si       1.47748827       7.85962840      56.79021159
Si       1.47748827       0.93500035       1.99867163
Si       1.03968541       6.49883019      10.57640504
Si       1.03968541       2.29579856      48.21247818
Si       1.04037558       6.68152935      48.04072294
Si       1.04037558       2.11309939      10.74816028
Si       0.61766753       2.10151581      18.81803657
Si       0.61766753       6.69311293      39.97084666
Si       0.61697736       2.28421498      40.14260190
Si       0.61697736       6.51041377      18.64628133
Si       1.13915014       4.40815225      53.87426497
Si       1.13915014       4.38647650       4.91461825
Si       0.51820280       8.78379087      24.47982336
Si       0.51820280       0.01083787      34.30905986
20
Lattice="1.6566162700747007 3.3807912345099083e-16 1.7946712114800972e-14 -1.8045057835334656e-15 8.842230806611573 1.126489224604989e-14 -6.328945381354556e-13 2.600298219508353e-14 58.42091757031529" Properties=species:S:1:pos:R:3 unique_starting_index=4 config_type=initial n_minim_iter=9 stress="-0.0005749366477820001 -1.734528232457144e-15 -2.7118565151219493e-15 -1.734528232457144e-15 0.040247847179543994 3.1956393666212438e-15 -2.7118565151219493e-15 3.1956393666212438e-15 0.03242231393772566" pbc="T T T"
Si       1.44766123       4.53734231      35.61401279
Si       1.44766123       4.30488850      22.80690478
Si       0.18598158       3.36843159      31.15340612
Si       0.18598158       5.47379921      27.26751145
Si       0.20895504       0.11622691      52.01736357
Si       0.20895504       8.72600390       6.40355400
Si       1.47063469       7.78954700      56.47797024
Si       1.47063469       1.05268381       1.94294733
Si       1.03521953       6.49263169      10.55114349
Si       1.03521953       2.34959912      47.86977408
Si       1.04282391       6.75951065      47.79339865
Si       1.04282391       2.08272016      10.62751892
Si       0.62139674       2.07151629      18.65931529
Si       0.62139674       6.77071452      39.76160228
Si       0.61379236       2.33839524      39.83797771
Si       0.61379236       6.50383556      18.58293986
Si       1.14051659       4.44543406      53.45703175
Si       1.14051659       4.39679675       4.96388582
Si       0.51609968       8.81791215      24.24657296
Si       0.51609968       0.02431865      34.17434461
20
Lattice="1.6568976894113308 3.38136554978252e-16 1.7949760830373004e-14 -1.807925163502749e-15 8.85898605737035 1.2955148336595704e-14 -6.300667713040221e-13 3.788786979728621e-14 58.15989346122427" Properties=species:S:1:pos:R:3 unique_starting_index=4 config_type=initial n_minim_iter=10 stress="0.005559047474351266 -2.005029995588657e-15 -2.227673832296799e-15 -2.005029995588657e-15 0.030730322674031526 1.0934517400946604e-14 -2.227673832296799e-15 1.0934517400946604e-14 0.00970669135614909" pbc="T T T"
Si       1.43816044       4.54610335      35.44025766
Si       1.43816044       4.31288270      22.71963581
Si       0.20434674       3.31386422      30.98881139
Si       0.20434674       5.54512184      27.17108207
Si       0.21873725       0.11661032      51.79958254
Si       0.21873725       8.74237573       6.36031092
Si       1.45255095       7.74335725      56.25102880
Si       1.45255095       1.11562881       1.90886466
Si       1.03176168       6.47451001      10.52365982
Si       1.03176168       2.38447605      47.63623364
Si       1.04583469       6.79769648      47.62081549
Si       1.04583469       2.06128958      10.53907797
Si       0.62513601       2.04501698      18.55628691
Si       0.62513601       6.81396908      39.60360655
Si       0.61106299       2.36820345      39.61902470
Si       0.61106299       6.49078261      18.54086876
Si       1.15009727       4.46673171      53.14135053
Si       1.15009727       4.39225435       5.01854293
Si       0.50680042       8.82174738      24.06140380
Si       0.50680042       0.03723868      34.09848966
20
Lattice="1.6564764668258296 3.38050592667955e-16 1.794519757657987e-14 -1.8060250003660764e-15 8.8496750974609 1.4889513340416313e-14 -6.292956703427247e-13 5.1072994037392084e-14 58.0887150531581" Properties=species:S:1:pos:R:3 unique_starting_index=4 config_type=initial n_minim_iter=11 stress="-0.00483995226737011 -2.2257559628747953e-15 -4.782608037264135e-16 -2.2257559628747953e-15 -0.03426560858214649 1.2978393906124748e-14 -4.782608037264135e-16 1.2978393906124748e-14 -0.013706693399458627" pbc="T T T"
Si       1.42657057       4.55081383      35.38605099
Si       1.42657057       4.29886127      22.70266406
Si       0.23208698       3.28375091      30.93736993
Si       0.23208698       5.56592418      27.15134512
Si       0.22990590       0.12597628      51.74702159
Si       0.22990590       8.72369882       6.34169347
Si       1.42438949       7.70858846      56.19570265
Si       1.42438949       1.14108663       1.89301241
Si       1.02964854       6.45627379      10.50202821
Si       1.02964854       2.39340131      47.58668684
Si       1.04832903       6.78847538      47.56669338
Si       1.04832903       2.06119972      10.52202167
Si       0.62682793       2.03143624      18.54232931
Si       0.62682793       6.81823886      39.54638574
Si       0.60814743       2.36363783      39.56637920
Si       0.60814743       6.48603727      18.52233586
Si       1.16546345       4.49221700      53.02846320
Si       1.16546345       4.35745810       5.06025185
Si       0.49101302       8.78229564      23.98410568
Si       0.49101302       0.06737945      34.10460938
20
Lattice="1.6563317259236328 3.38021054218047e-16 1.7943629547006316e-14 -1.80879730011446e-15 8.863259600476459 1.6916210372204167e-14 -6.296390213170672e-13 6.484389179980117e-14 58.12040892592897" Properties=species:S:1:pos:R:3 unique_starting_index=4 config_type=initial n_minim_iter=12 stress="-0.0003833856629893234 -8.820768254526683e-16 -6.128605764688107e-16 -8.820768254526683e-16 0.008638156568228994 1.8517497740643182e-14 -6.128605764688107e-16 1.8517497740643182e-14 0.01350441188821685" pbc="T T T"
Si       1.41672400       4.58991209      35.40199977
Si       1.41672400       4.27334751      22.71840916
Si       0.26542483       3.27568449      30.94692448
Si       0.26542483       5.58757511      27.17348445
Si       0.23960773       0.15828229      51.77861362
Si       0.23960773       8.70497731       6.34179531
Si       1.39090689       7.70731429      56.23368891
Si       1.39090689       1.15594531       1.88672002
Si       1.03459450       6.47422958      10.48767743
Si       1.03459450       2.38903002      47.63273149
Si       1.04666130       6.79465091      47.58197619
Si       1.04666130       2.06860869      10.53843274
Si       0.62173722       2.04259978      18.57252703
Si       0.62173722       6.82065982      39.54788190
Si       0.60967042       2.36302111      39.59863720
Si       0.60967042       6.50023849      18.52177173
Si       1.18553802       4.52880900      53.02986554
Si       1.18553802       4.33445061       5.09054339
Si       0.47079371       8.76608041      23.96966108
Si       0.47079371       0.09717920      34.15074785
20
Lattice="1.6563799459044761 3.380308948610688e-16 1.794415193117601e-14 -1.8088791453139083e-15 8.863660648876595 1.7851744946567045e-14 -6.294132428800772e-13 7.123051731665551e-14 58.09956788107665" Properties=species:S:1:pos:R:3 unique_starting_index=4 config_type=initial n_minim_iter=13 stress="-1.217171112817228e-05 -1.1542235409495903e-15 -7.45240802840789e-16 -1.1542235409495903e-15 0.0035884813828227224 1.5330296069824824e-14 -7.45240802840789e-16 1.5330296069824824e-14 0.0013016875174930887" pbc="T T T"
Si       1.41521773       4.59398288      35.38895635
Si       1.41521773       4.26967777      22.71061153
Si       0.27376430       3.27732890      30.93541903
Si       0.27376430       5.58633175      27.16414885
Si       0.24116222       0.16215255      51.76039547
Si       0.24116222       8.70150810       6.33917241
Si       1.38261564       7.70915922      56.21393279
Si       1.38261564       1.15450143       1.88563509
Si       1.03566790       6.47469413      10.48373959
Si       1.03566790       2.38896651      47.61582829
Si       1.04762048       6.79730246      47.56410792
Si       1.04762048       2.06635819      10.53545996
Si       0.62071204       2.04286381      18.56604435
Si       0.62071204       6.82079684      39.53352353
Si       0.60875946       2.36547213      39.58524390
Si       0.60875946       6.49818852      18.51432398
Si       1.19038477       4.53781021      53.01131975
Si       1.19038477       4.32585044       5.08824813
Si       0.46599517       8.75768076      23.96153581
Si       0.46599517       0.10597989      34.13803207
20
Lattice="1.6564660958036768 3.3804847616988355e-16 1.7945085223615794e-14 -1.8091261070365282e-15 8.864870782181054 1.8636991066573536e-14 -6.287643912844633e-13 7.669056973676008e-14 58.03967400729897" Properties=species:S:1:pos:R:3 unique_starting_index=4 config_type=initial n_minim_iter=14 stress="0.0019850982635242287 -1.841957960734056e-15 -3.0482189732091166e-16 -1.841957960734056e-15 -0.012689949991301264 1.4986816086741984e-14 -3.0482189732091166e-16 1.4986816086741984e-14 -0.020833394646198686" pbc="T T T"
Si       1.41072578       4.61588509      35.35087363
Si       1.41072578       4.24898569      22.68880037
Si       0.30387271       3.27550393      30.90198572
Si       0.30387271       5.58936686      27.13768829
Si       0.24574032       0.18344970      51.70863738
Si       0.24574032       8.68142108       6.33103663
Si       1.35259338       7.70793932      56.15752530
Si       1.35259338       1.15693147       1.88214871
Si       1.03932807       6.46503592      10.48102024
Si       1.03932807       2.39983486      47.55865377
Si       1.05278802       6.81240844      47.52337213
Si       1.05278802       2.05246234      10.51630188
Si       0.61713803       2.03260053      18.53881676
Si       0.61713803       6.83227025      39.50085724
Si       0.60367808       2.37997305      39.53613888
Si       0.60367808       6.48489773      18.50353513
Si       1.20725595       4.55955607      52.95246425
Si       1.20725595       4.30531471       5.08720976
Si       0.44921015       8.73775010      23.93262724
Si       0.44921015       0.12712068      34.10704676
20
Lattice="1.6560534090665593 3.3796425583920073e-16 1.7940614441698493e-14 -1.809160337091631e-15 8.865038512347317 2.00001287300589e-14 -6.305998307335389e-13 8.555670435326884e-14 58.20909884872077" Properties=species:S:1:pos:R:3 unique_starting_index=4 config_type=initial n_minim_iter=15 stress="-0.003784861306101857 -6.028126658248305e-16 -1.8405273786078392e-15 -6.028126658248305e-16 0.014990926579764974 1.824235846647832e-14 -1.8405273786078392e-15 1.824235846647832e-14 0.0062127165013394735" pbc="T T T"
Si       1.40977750       4.64273225      35.45714745
Si       1.40977750       4.22230626      22.75195140
Si       0.34095709       3.30087107      30.99831574
Si       0.34095709       5.56416745      27.21078311
Si       0.24627591       0.21021300      51.85650082
Si       0.24627591       8.65482552       6.35259803
Si       1.31509632       7.73339032      56.31533254
Si       1.31509632       1.13164819       1.89376631
Si       1.04755325       6.43756816      10.53428161
Si       1.04755325       2.42747035      47.67481724
Si       1.06304434       6.83645976      47.68356124
Si       1.06304434       2.02857875      10.52553761
Si       0.60850016       2.00504890      18.57026781
Si       0.60850016       6.85998961      39.63883103
Si       0.59300907       2.40394051      39.63008703
Si       0.59300907       6.46109801      18.57901182
Si       1.22451572       4.57733479      53.11500155
Si       1.22451572       4.28770372       5.09409730
Si       0.43153769       8.72022297      24.01045213
Si       0.43153769       0.14481554      34.19864672
20
Lattice="1.6556959740051305 3.378913111665989e-16 1.7936742220796866e-14 -1.8087514735528475e-15 8.863035046473929 2.3330082418351758e-14 -6.33853214041093e-13 1.0740263536538153e-13 58.50941055404127" Properties=species:S:1:pos:R:3 unique_starting_index=4 config_type=initial n_minim_iter=16 stress="-0.01210200671729799 -8.174777464998103e-16 -9.139244744609848e-16 -8.174777464998103e-16 0.0033543841666801026 2.1237352908119082e-14 -9.139244744609848e-16 2.1237352908119082e-14 0.013545295113574926" pbc="T T T"
Si       1.39723460       4.73578698      35.66133839
Si       1.39723460       4.12724807      22.84807216
Si       0.47199553       3.34667231      31.18468621
Si       0.47199553       5.51636274      27.32472435
Si       0.25846138       0.30426946      52.10277744
Si       0.25846138       8.55876559       6.40663312
Si       1.18370044       7.77818983      56.57942962
Si       1.18370044       1.08484521       1.92998093
Si       1.07128059       6.38146761      10.60301321
Si       1.07128059       2.48156744      47.90639735
Si       1.08878791       6.88221460      47.96926432
Si       1.08878791       1.98082044      10.54014623
Si       0.58441538       1.94995009      18.65169207
Si       0.58441538       6.91308496      39.85771848
Si       0.56690807       2.45069708      39.79485151
Si       0.56690807       6.41233797      18.71455904
Si       1.29319839       4.66065720      53.36981518
Si       1.29319839       4.20237785       5.13959537
Si       0.36249758       8.63389537      24.11510990
Si       0.36249758       0.22913967      34.39430065
20
Lattice="1.65568205667232 3.3788847094336753e-16 1.7936591449391006e-14 -1.8086113915451826e-15 8.86234863279503 2.579208702035311e-14 -6.344488991469779e-13 1.2394544531861183e-13 58.564396761653306" Properties=species:S:1:pos:R:3 unique_starting_index=4 config_type=initial n_minim_iter=17 stress="-0.01603583986616147 4.0180114669766967e-16 -3.2056238108882892e-15 4.0180114669766967e-16 -0.0012194655382697613 2.5790982543623474e-14 -3.2056238108882892e-15 2.5790982543623474e-14 0.011975748353385015" pbc="T T T"
Si       1.39492101       4.75112155      35.69733212
Si       1.39492101       4.11122708      22.86706464
Si       0.49542547       3.35551708      31.21794992
Si       0.49542547       5.50683156      27.34644685
Si       0.26076105       0.31994723      52.14926302
Si       0.26076105       8.54240140       6.41513374
Si       1.16025658       7.78669139      56.62864523
Si       1.16025658       1.07565724       1.93575154
Si       1.07547199       6.37203062      10.61533223
Si       1.07547199       2.49031801      47.94906453
Si       1.09318469       6.89010236      48.02084690
Si       1.09318469       1.97224627      10.54354986
Si       0.58021007       1.94085631      18.66686615
Si       0.58021007       6.92149232      39.89753061
Si       0.56249737       2.45892804      39.82574824
Si       0.56249737       6.40342059      18.73864852
Si       1.30571325       4.67542139      53.41537732
Si       1.30571325       4.18692725       5.14901944
Si       0.34996881       8.61810156      24.13317894
Si       0.34996881       0.24424707      34.43121782
20
Lattice="1.6570712049026908 3.3817196569388745e-16 1.7951640585287e-14 -1.8056528036000077e-15 8.847851301887056 2.6882014675774026e-14 -6.371797478234339e-13 1.3038561360501864e-13 58.81647459739346" Properties=species:S:1:pos:R:3 unique_starting_index=4 config_type=initial n_minim_iter=18 stress="0.004963640025793555 -1.5397968749661482e-16 -2.138077483491875e-15 -1.5397968749661482e-16 -0.030693778236798704 2.439676827914592e-14 -2.138077483491875e-15 2.439676827914592e-14 0.010906068967456403" pbc="T T T"
Si       1.39111088       4.76055186      35.85411791
Si       1.39111088       4.08729944      22.96235668
Si       0.54412832       3.40395595      31.37095245
Si       0.54412832       5.44389536      27.44552215
Si       0.26596032       0.33662621      52.37059398
Si       0.26596032       8.51122509       6.44588062
Si       1.11294288       7.82788160      56.85375944
Si       1.11294288       1.01996970       1.96271515
Si       1.08689760       6.36117073      10.63919447
Si       1.08689760       2.48668057      48.17728012
Si       1.10043158       6.88571743      48.22762398
Si       1.10043158       1.96213387      10.58885062
Si       0.57017361       1.93724508      18.76904283
Si       0.57017361       6.91060622      40.04743177
Si       0.55663963       2.46179178      39.99708791
Si       0.55663963       6.38605952      18.81938668
Si       1.33326250       4.70110006      53.61033737
Si       1.33326250       4.14675124       5.20613723
Si       0.32380870       8.57067689      24.20210007
Si       0.32380870       0.27717441      34.61437453
20
Lattice="1.6569843196898963 3.3815423432373613e-16 1.7950699326934708e-14 -1.8075046089403644e-15 8.856925304523173 2.7612626274946392e-14 -6.368312100853743e-13 1.3557397010470174e-13 58.784301947389345" Properties=species:S:1:pos:R:3 unique_starting_index=4 config_type=initial n_minim_iter=19 stress="0.003332788619039018 1.8788856067650137e-16 -2.0840187339693585e-15 1.8788856067650137e-16 -0.007467835480164815 2.333318542012179e-14 -2.0840187339693585e-15 2.333318542012179e-14 0.004860776372807634" pbc="T T T"
Si       1.39322606       4.77509845      35.82739455
Si       1.39322606       4.08182685      22.95690739
Si       0.55757728       3.41695328      31.35492287
Si       0.55757728       5.43997203      27.42937908
Si       0.26375826       0.34663580      52.34905837
Si       0.26375826       8.51028951       6.43524358
Si       1.09940704       7.84541593      56.82153005
Si       1.09940704       1.01150938       1.96277189
Si       1.08995729       6.35975962      10.64014167
Si       1.08995729       2.49716568      48.14416027
Si       1.10365484       6.90311820      48.20792155
Si       1.10365484       1.95380711      10.57638040
Si       0.56702703       1.93129697      18.75200930
Si       0.56702703       6.92562833      40.03229265
Si       0.55332948       2.47465554      39.96853137
Si       0.55332948       6.38226976      18.81577058
Si       1.34246056       4.71948562      53.57197554
Si       1.34246056       4.13743968       5.21232641
Si       0.31452376       8.56590233      24.17982457
Si       0.31452376       0.29102297      34.60447738
20
Lattice="1.6568611459767786 3.3812909726465587e-16 1.7949364942376796e-14 -1.8085480902914274e-15 8.862038451308292 2.8035087307100276e-14 -6.369184160199354e-13 1.384913867364096e-13 58.7923517098821" Properties=species:S:1:pos:R:3 unique_starting_index=4 config_type=initial n_minim_iter=20 stress="0.0009208799641673494 -3.2409340558398934e-17 -2.064294941678021e-15 -3.2409340558398934e-17 0.004324285498341159 1.5843537627263023e-14 -2.064294941678021e-15 1.5843537627263023e-14 0.0004173493168917092" pbc="T T T"
Si       1.39779640       4.79410799      35.82800144
Si       1.39779640       4.06793047      22.96435027
Si       0.57406136       3.43626728      31.36554170
Si       0.57406136       5.42577118      27.42681001
Si       0.25906474       0.36308876      52.36052612
Si       0.25906474       8.49894969       6.43182559
Si       1.08279978       7.86728650      56.82298586
Si       1.08279978       0.99475195       1.96936585
Si       1.09406681       6.35272051      10.64557373
Si       1.09406681       2.50931794      48.14677798
Si       1.10779402       6.91786146      48.22181324
Si       1.10779402       1.94417699      10.57053847
Si       0.56279434       1.92170128      18.75060213
Si       0.56279434       6.94033717      40.04174958
Si       0.54906712       2.48684224      39.96671432
Si       0.54906712       6.37519621      18.82563739
Si       1.35514843       4.73768166      53.56889542
Si       1.35514843       4.12435679       5.22345629
Si       0.30171271       8.55537602      24.17271956
Si       0.30171271       0.30666244      34.61963215
20
Lattice="1.656658771814597 3.380877971273974e-16 1.7947172551239904e-14 -1.8095865683186023e-15 8.86712708138535 2.887243346287371e-14 -6.376572997573775e-13 1.440263929544338e-13 58.86055622630407" Properties=species:S:1:pos:R:3 unique_starting_index=4 config_type=initial n_minim_iter=21 stress="-0.0022049355686664437 4.966567431673418e-16 -1.2121095283091277e-15 4.966567431673418e-16 0.012811677867724214 2.4436847138737284e-14 -1.2121095283091277e-15 2.4436847138737284e-14 -0.004006893680251495" pbc="T T T"
Si       1.41235517       4.83561870      35.86630967
Si       1.41235517       4.03150838      22.99424656
Si       0.60211456       3.47067696      31.41451614
Si       0.60211456       5.39645012      27.44604008
Si       0.24430361       0.40205516      52.42452467
Si       0.24430361       8.46507192       6.43603155
Si       1.05454421       7.90424051      56.87631820
Si       1.05454421       0.96288658       1.98423803
Si       1.10114781       6.33177761      10.66004694
Si       1.10114781       2.53534947      48.20050928
Si       1.11476355       6.94475643      48.29342505
Si       1.11476355       1.92237065      10.56713118
Si       0.55551096       1.89821407      18.77023117
Si       0.55551096       6.96891301      40.09032506
Si       0.54189522       2.51119289      39.99740929
Si       0.54189522       6.35593419      18.86314694
Si       1.38351625       4.78047860      53.60236066
Si       1.38351625       4.08664848       5.25819557
Si       0.27314252       8.52021202      24.17208254
Si       0.27314252       0.34691506      34.68847368
