20
Lattice="5.20573 -3.1875902908626754e-16 -3.1875902908626833e-16 3.1875902908626754e-16 5.20573 1.0940467840667653e-30 9.058265377211258e-16 3.0535177740003408e-30 14.793269999999993" Properties=species:S:1:pos:R:3 unique_starting_index=4 config_type=initial n_minim_iter=1 pbc="T T T"
Si       3.06272669       2.84766237       9.11884382
Si       3.06272669       2.35806763       5.67442618
Si       2.14300331       1.99682224       8.09228260
Si       2.14300331       3.20890776       6.70098740
Si       2.14300331       0.24479737      13.07106118
Si       2.14300331       4.96093263       1.72220882
Si       3.06272669       4.59968724      14.09762240
Si       3.06272669       0.60604276       0.69564760
Si       2.66531606       4.20148065       3.03153452
Si       2.66531606       1.00424935      11.76173548
Si       2.54041394       4.13893745      11.93946626
Si       2.54041394       1.06679255       2.85380374
Si       2.54041394       1.59861565       4.36510048
Si       2.54041394       3.60711435      10.42816952
Si       2.66531606       1.53607245      10.25043874
Si       2.66531606       3.66965755       4.54283126
Si       4.98364263       2.94215054      13.82911271
Si       4.98364263       2.26357946       0.96415729
Si       0.22208737       4.86644446       6.43247771
Si       0.22208737       0.33928554       8.36079229
20
Lattice="5.150172104930811 -3.153570891680752e-16 -3.7523107233251565e-16 3.075341597864958e-16 5.022413972757093 1.0632540567883895e-30 7.116335274616324e-16 2.9509591987400777e-30 14.400545813551105" Properties=species:S:1:pos:R:3 unique_starting_index=4 config_type=initial n_minim_iter=2 pbc="T T T"
Si       3.02837818       2.74067089       8.88344538
Si       3.02837818       2.28174308       5.51710043
Si       2.11949326       1.92883194       7.87309447
Si       2.11949326       3.09358203       6.52745135
Si       2.12179392       0.22946390      12.71737334
Si       2.12179392       4.79295007       1.68317247
Si       3.03067884       4.44003892      13.72772425
Si       3.03067884       0.58237505       0.67282156
Si       2.63719541       4.05249349       2.94994398
Si       2.63719541       0.96992049      11.45060183
Si       2.51075635       3.99952927      11.63035839
Si       2.51075635       1.02288471       2.77018743
Si       2.51297669       1.54128650       4.25032892
Si       2.51297669       3.48112747      10.15021689
Si       2.63941575       1.48832228       9.97046033
Si       2.63941575       3.53409169       4.43008548
Si       4.93025938       2.83901835      13.46087330
Si       4.93025938       2.18339563       0.93967251
Si       0.21991272       4.69460261       6.26060040
Si       0.21991272       0.32781136       8.13994542
20
Lattice="5.126169248678058 -3.1444046245955476e-16 -3.6832227577357487e-16 3.127057899240473e-16 5.115699841583215 -3.811416514188184e-17 7.350074167296042e-16 -1.0927098840243437e-16 14.520918320591766" Properties=species:S:1:pos:R:3 unique_starting_index=4 config_type=initial n_minim_iter=3 pbc="T T T"
Si       3.01454493       2.79194568       8.95740905
Si       3.01454493       2.32375416       5.56350927
Si       2.10929968       1.96515389       7.93778874
Si       2.10929968       3.15054595       6.58312958
Si       2.11162431       0.23409576      12.82396843
Si       2.11162431       4.88160408       1.69694989
Si       3.01686957       4.52300381      13.84358874
Si       3.01686957       0.59269603       0.67732958
Si       2.62522971       4.12577298       2.97385922
Si       2.62522971       0.98992686      11.54705910
Si       2.49885002       4.07163846      11.72858722
Si       2.49885002       1.04406138       2.79233110
Si       2.50093954       1.56792306       4.28659994
Si       2.50093954       3.54777678      10.23431838
Si       2.62731923       1.51378854      10.05279026
Si       2.62731923       3.60191130       4.46812806
Si       4.90699070       2.89206959      13.57271306
Si       4.90699070       2.22363025       0.94820526
Si       0.21917855       4.78148017       6.31225390
Si       0.21917855       0.33421967       8.20866442
20
Lattice="5.105538097136781 -3.1320562285005354e-16 -3.7620353949451295e-16 3.138142201040155e-16 5.134195489372102 -9.995502056341621e-19 7.075040013519713e-16 -3.0298539913810453e-18 14.494053949633306" Properties=species:S:1:pos:R:3 unique_starting_index=4 config_type=initial n_minim_iter=4 pbc="T T T"
Si       3.00268626       2.80241322       8.94069595
Si       3.00268626       2.33178227       5.55335799
Si       2.10055424       1.97521922       7.91916772
Si       2.10055424       3.15897626       6.57488623
Si       2.10285183       0.23531547      12.80038497
Si       2.10285183       4.89888002       1.69366898
Si       3.00498386       4.54231697      13.82191320
Si       3.00498386       0.59187852       0.67214075
Si       2.61486753       4.13963000       2.96777714
Si       2.61486753       0.99456549      11.52627681
Si       2.48866594       4.08514443      11.70755223
Si       2.48866594       1.04905106       2.78650171
Si       2.49067057       1.57253226       4.27924984
Si       2.49067057       3.56166323      10.21480411
Si       2.61687216       1.51804669      10.03352869
Si       2.61687216       3.61614880       4.46052526
Si       4.88709239       2.90277379      13.54702564
Si       4.88709239       2.23142170       0.94702831
Si       0.21844571       4.79851944       6.29999867
Si       0.21844571       0.33567605       8.19405528
20
Lattice="5.068308199686646 -3.1089047189717855e-16 -3.7714921935238766e-16 3.166607040079538e-16 5.1799644188794245 -9.420084588002373e-17 7.003909538829435e-16 -2.683808523400673e-16 14.516172187742363" Properties=species:S:1:pos:R:3 unique_starting_index=4 config_type=initial n_minim_iter=5 pbc="T T T"
Si       2.98124807       2.82805264       8.95400430
Si       2.98124807       2.35191178       5.56216789
Si       2.08479765       1.99705409       7.92560361
Si       2.08479765       3.18291033       6.59056858
Si       2.08706013       0.23807043      12.82025399
Si       2.08706013       4.94189399       1.69591820
Si       2.98351055       4.58703630      13.84865467
Si       2.98351055       0.59292812       0.66751752
Si       2.59615687       4.17480839       2.97121453
Si       2.59615687       1.00515603      11.54495766
Si       2.47031144       4.11955730      11.72664608
Si       2.47031144       1.06040712       2.78952611
Si       2.47215133       1.58482618       4.28687157
Si       2.47215133       3.59513824      10.22930062
Si       2.59799676       1.52957509      10.04761220
Si       2.59799676       3.65038933       4.46855998
Si       4.85116435       2.92914265      13.56662657
Si       4.85116435       2.25082177       0.94954562
Si       0.21714385       4.84080398       6.30854047
Si       0.21714385       0.33916044       8.20763172
20
Lattice="4.997945973520334 -3.065337456543017e-16 -3.571153613600727e-16 3.2205105993398697e-16 5.26697909373284 -1.1018483045393787e-16 7.570189354984013e-16 -3.1509949760727993e-16 14.673313343010635" Properties=species:S:1:pos:R:3 unique_starting_index=4 config_type=initial n_minim_iter=6 pbc="T T T"
Si       2.94067883       2.87684024       9.05016778
Si       2.94067883       2.39013885       5.62314556
Si       2.05508993       2.03680618       8.00296948
Si       2.05508993       3.23017291       6.67034387
Si       2.05726714       0.24335070      12.95980223
Si       2.05726714       5.02362840       1.71351111
Si       2.94285604       4.67029573      14.00700054
Si       2.94285604       0.59668336       0.66631281
Si       2.56072307       4.24254424       3.00118570
Si       2.56072307       1.02443485      11.67212764
Si       2.43571044       4.18583397      11.85595543
Si       2.43571044       1.08114512       2.81735791
Si       2.43722290       1.60905470       4.33547097
Si       2.43722290       3.65792440      10.33784237
Si       2.56223554       1.55234442      10.15401458
Si       2.56223554       3.71463467       4.51929876
Si       4.78329728       2.97935488      13.71139941
Si       4.78329728       2.28762421       0.96191393
Si       0.21464869       4.92111376       6.37474274
Si       0.21464869       0.34586534       8.29857061
20
Lattice="4.961068080841103 -3.046936085134494e-16 -3.5808064399007845e-16 3.2033207585005585e-16 5.245689366501209 -1.767350123837139e-16 7.469510825530996e-16 -5.03143591657693e-16 14.649924957501629" Properties=species:S:1:pos:R:3 unique_starting_index=4 config_type=initial n_minim_iter=7 pbc="T T T"
Si       2.91921488       2.86517250       9.03596308
Si       2.91921488       2.38051687       5.61396188
Si       2.03959391       2.03314222       7.98444446
Si       2.03959391       3.21254715       6.66548050
Si       2.04185320       0.24232782      12.93892436
Si       2.04185320       5.00336155       1.71100060
Si       2.92147417       4.65598690      13.99044298
Si       2.92147417       0.58970246       0.65948198
Si       2.54207120       4.22497463       2.99526022
Si       2.54207120       1.02071474      11.65466474
Si       2.41745413       4.16898243      11.83881362
Si       2.41745413       1.07670694       2.81111134
Si       2.41899689       1.60212995       4.32970226
Si       2.41899689       3.64355942      10.32022269
Si       2.54361396       1.54613774      10.13607382
Si       2.54361396       3.69955162       4.51385114
Si       4.74784160       2.96775540      13.68859177
Si       4.74784160       2.27793396       0.96133319
Si       0.21322648       4.90077865       6.36362929
Si       0.21322648       0.34491072       8.28629566
20
Lattice="4.94963146646467 -3.042986148722718e-16 -3.451882835651989e-16 3.217801044258736e-16 5.274180528566195 -1.5466040724111304e-16 7.880494070506786e-16 -4.400317545131277e-16 14.742124266291224" Properties=species:S:1:pos:R:3 unique_starting_index=4 config_type=initial n_minim_iter=8 pbc="T T T"
Si       2.91260278       2.88094645       9.09263453
Si       2.91260278       2.39323408       5.64948974
Si       2.03479977       2.04382317       8.03488672
Si       2.03479977       3.23035736       6.70723755
Si       2.03702869       0.24385618      13.02055187
Si       2.03702869       5.03032435       1.72157239
Si       2.91483170       4.68091344      14.07829968
Si       2.91483170       0.59326709       0.66382459
Si       2.53630002       4.24773233       3.01369962
Si       2.53630002       1.02644820      11.72842465
Si       2.41185495       4.19135557      11.91378164
Si       2.41185495       1.08282496       2.82834262
Si       2.41333145       1.61064206       4.35736252
Si       2.41333145       3.66353847      10.38476175
Si       2.53777652       1.55426530      10.19940476
Si       2.53777652       3.71991523       4.54271951
Si       4.73682646       2.98404870      13.77439696
Si       4.73682646       2.29013182       0.96772730
Si       0.21280501       4.92722209       6.40333483
Si       0.21280501       0.34695844       8.33878944
20
Lattice="4.939875094611672 -3.0427236107124967e-16 -3.441874914800552e-16 3.2072614933740717e-16 5.266284327559468 -1.4689290970591014e-16 7.893255199517727e-16 -4.1735216982176336e-16 14.741451530834624" Properties=species:S:1:pos:R:3 unique_starting_index=4 config_type=initial n_minim_iter=9 pbc="T T T"
Si       2.90681604       2.87623758       9.09255438
Si       2.90681604       2.39004675       5.64889715
Si       2.03072280       2.04127592       8.03379282
Si       2.03072280       3.22500841       6.70765871
Si       2.03305905       0.24309541      13.01962291
Si       2.03305905       5.02318891       1.72182862
Si       2.90915229       4.67441809      14.07838448
Si       2.90915229       0.59186624       0.66306706
Si       2.53135902       4.24129286       3.01327367
Si       2.53135902       1.02499147      11.72817787
Si       2.40694424       4.18550391      11.91400270
Si       2.40694424       1.08078042       2.82744883
Si       2.40851607       1.60815069       4.35745210
Si       2.40851607       3.65813363      10.38399943
Si       2.53293085       1.55236175      10.19817460
Si       2.53293085       3.71392258       4.54327693
Si       4.72745506       2.97968778      13.77354147
Si       4.72745506       2.28659655       0.96791006
Si       0.21242003       4.91973871       6.40281570
Si       0.21242003       0.34654561       8.33863583
20
Lattice="4.93526706574747 -3.045050154362483e-16 -3.4095405102518683e-16 3.204727217538815e-16 5.270492733564383 -1.4588017332496814e-16 7.990087653464355e-16 -4.1430418020211626e-16 14.759457080927504" Properties=species:S:1:pos:R:3 unique_starting_index=4 config_type=initial n_minim_iter=10 pbc="T T T"
Si       2.90413271       2.87854267       9.10365664
Si       2.90413271       2.39195006       5.65580044
Si       2.02879516       2.04304446       8.04337297
Si       2.02879516       3.22744828       6.71608411
Si       2.03113435       0.24329630      13.03552898
Si       2.03113435       5.02719643       1.72392810
Si       2.90647191       4.67829082      14.09581265
Si       2.90647191       0.59220191       0.66364443
Si       2.52902903       4.24463058       3.01679940
Si       2.52902903       1.02586216      11.74265769
Si       2.40467044       4.18884529      11.92878837
Si       2.40467044       1.08164744       2.83066871
Si       2.40623804       1.60938421       4.36292915
Si       2.40623804       3.66110852      10.39652794
Si       2.53059663       1.55359893      10.21039725
Si       2.53059663       3.71689381       4.54905983
Si       4.72302618       2.98212645      13.79024294
Si       4.72302618       2.28836628       0.96921414
Si       0.21224088       4.92361265       6.41051440
Si       0.21224088       0.34688008       8.34894268
20
Lattice="4.930079908622765 -3.0475074137023787e-16 -3.388097991061004e-16 3.1994587319964843e-16 5.271039063512122 -1.4947374781158725e-16 8.04996385422773e-16 -4.242689099749422e-16 14.769941304020382" Properties=species:S:1:pos:R:3 unique_starting_index=4 config_type=initial n_minim_iter=11 pbc="T T T"
Si       2.90108563       2.87874491       9.11020578
Si       2.90108563       2.39229416       5.65973552
Si       2.02662744       2.04346486       8.04876811
Si       2.02662744       3.22757420       6.72117319
Si       2.02899428       0.24322538      13.04470617
Si       2.02899428       5.02781369       1.72523513
Si       2.90345247       4.67898439      14.10614384
Si       2.90345247       0.59205467       0.66379746
Si       2.52640392       4.24502065       3.01877742
Si       2.52640392       1.02601841      11.75116388
Si       2.40208716       4.18938564      11.93759543
Si       2.40208716       1.08165343       2.83234587
Si       2.40367599       1.60950112       4.36619323
Si       2.40367599       3.66153794      10.40374807
Si       2.52799275       1.55386611      10.21731652
Si       2.52799275       3.71717296       4.55262478
Si       4.71804334       2.98249526      13.79991033
Si       4.71804334       2.28854380       0.97003098
Si       0.21203657       4.92406333       6.41493967
Si       0.21203657       0.34697573       8.35500163
20
Lattice="4.91715251025634 -3.045427581147924e-16 -3.344727056043703e-16 3.1941451280208026e-16 5.271749322885639 -1.461038375534708e-16 8.16946092307825e-16 -4.1402440017078397e-16 14.794476912027246" Properties=species:S:1:pos:R:3 unique_starting_index=4 config_type=initial n_minim_iter=12 pbc="T T T"
Si       2.89348697       2.87887402       9.12556080
Si       2.89348697       2.39287530       5.66891611
Si       2.02122704       2.04426118       8.06134445
Si       2.02122704       3.22748814       6.73313246
Si       2.02366554       0.24299936      13.06615456
Si       2.02366554       5.02874996       1.72832235
Si       2.89592547       4.68013584      14.13037092
Si       2.89592547       0.59161348       0.66410600
Si       2.51986073       4.24547070       3.02338174
Si       2.51986073       1.02627862      11.77109517
Si       2.39564593       4.19023625      11.95827411
Si       2.39564593       1.08151307       2.83620281
Si       2.39729178       1.60959604       4.37385671
Si       2.39729178       3.66215328      10.42062020
Si       2.52150658       1.55436159      10.23344126
Si       2.52150658       3.71738774       4.56103565
Si       4.70562724       2.98304346      13.82251690
Si       4.70562724       2.28870586       0.97196001
Si       0.21152527       4.92458052       6.42527845
Si       0.21152527       0.34716880       8.36919847
20
Lattice="4.6739196565539975 -2.9046404877718735e-16 -2.5682199913342006e-16 3.1985345315632486e-16 5.289016810597681 -1.0606419329519932e-16 1.0319707203315939e-15 -2.882938868910877e-16 15.277143201314566" Properties=species:S:1:pos:R:3 unique_starting_index=4 config_type=initial n_minim_iter=13 pbc="T T T"
Si       2.75051474       2.88328792       9.42766970
Si       2.75051474       2.40572889       5.84947350
Si       1.91972862       2.06066111       8.30902959
Si       1.91972862       3.22835570       6.96811361
Si       1.92340491       0.23877952      13.48804510
Si       1.92340491       5.05023730       1.78909810
Si       2.75419103       4.70516952      14.60668521
Si       2.75419103       0.58384730       0.67045799
Si       2.39668918       4.25708039       3.11385367
Si       2.39668918       1.03193642      12.16328953
Si       2.27456299       4.20957492      12.36538153
Si       2.27456299       1.07944189       2.91176167
Si       2.27723048       1.61257198       4.52471793
Si       2.27723048       3.67644483      10.75242527
Si       2.39935666       1.56506652      10.55033327
Si       2.39935666       3.72395029       4.72680993
Si       4.47211236       2.99555755      14.26722659
Si       4.47211236       2.29345926       1.00991661
Si       0.20180730       4.93796767       6.62865499
Si       0.20180730       0.35104914       8.64848821
20
Lattice="4.526023055499125 -2.828936866192408e-16 -2.980291807926467e-16 3.1532879501344826e-16 5.237705575819991 -3.4977819077049994e-16 9.036524538686746e-16 -9.770831609186888e-16 15.38591300262225" Properties=species:S:1:pos:R:3 unique_starting_index=4 config_type=initial n_minim_iter=14 pbc="T T T"
Si       2.66343538       2.85051601       9.49905393
Si       2.66343538       2.38718957       5.88685907
Si       1.85862503       2.04373291       8.36279740
Si       1.85862503       3.19397267       7.02311560
Si       1.86258768       0.23166322      13.57981558
Si       1.86258768       5.00604236       1.80609743
Si       2.66739802       4.66258569      14.71607210
Si       2.66739802       0.57511988       0.66984090
Si       2.32162556       4.21534387       3.13145105
Si       2.32162556       1.02236171      12.25446195
Si       2.20116878       4.17484568      12.46562331
Si       2.20116878       1.06285989       2.92028970
Si       2.20439750       1.59649108       4.56150545
Si       2.20439750       3.64121449      10.82440755
Si       2.32485428       1.55599289      10.61324620
Si       2.32485428       3.68171268       4.77266681
Si       4.33077736       2.96732785      14.36556902
Si       4.33077736       2.27037773       1.02034399
Si       0.19524570       4.88923052       6.67261251
Si       0.19524570       0.34847506       8.71330049
20
Lattice="4.501018474087128 -2.8214651767441724e-16 -3.728704305313719e-16 3.173236139823719e-16 5.281845136351212 -2.440005282203708e-16 6.998830813087049e-16 -6.761934588319184e-16 15.51836954874792" Properties=species:S:1:pos:R:3 unique_starting_index=4 config_type=initial n_minim_iter=15 pbc="T T T"
Si       2.64894131       2.87489746       9.58039994
Si       2.64894131       2.40694768       5.93796961
Si       1.84834895       2.06017138       8.43563401
Si       1.84834895       3.22167376       7.08273554
Si       1.85207716       0.23397489      13.69715439
Si       1.85207716       5.04787024       1.82121516
Si       2.65266953       4.70109394      14.84192032
Si       2.65266953       0.58075119       0.67644923
Si       2.30893504       4.25059105       3.15770486
Si       2.30893504       1.03125409      12.36066469
Si       2.18901410       4.20965143      12.57392835
Si       2.18901410       1.07219370       2.94444120
Si       2.19208344       1.60966848       4.60147992
Si       2.19208344       3.67217666      10.91688963
Si       2.31200437       1.56872886      10.70362597
Si       2.31200437       3.71311627       4.81474358
Si       4.30691558       2.99243400      14.48864834
Si       4.30691558       2.28941114       1.02972120
Si       0.19410290       4.93033371       6.72946357
Si       0.19410290       0.35151143       8.78890598
20
Lattice="4.4754987878055195 -2.8239942464858714e-16 -4.650256722636862e-16 3.1616903028676405e-16 5.291800841701927 -1.8080967446313128e-16 4.3929231719927115e-16 -4.96587545582701e-16 15.547676252424528" Properties=species:S:1:pos:R:3 unique_starting_index=4 config_type=initial n_minim_iter=16 pbc="T T T"
Si       2.63417089       2.88071473       9.59815874
Si       2.63417089       2.41108611       5.94951751
Si       1.83784108       2.06522992       8.44986129
Si       1.83784108       3.22657092       7.09781496
Si       1.84132790       0.23481431      13.72335564
Si       1.84132790       5.05698654       1.82432062
Si       2.63765771       4.71113035      14.87165309
Si       2.63765771       0.58067050       0.67602317
Si       2.29596699       4.25853347       3.16297268
Si       2.29596699       1.03326737      12.38470358
Si       2.17661659       4.21740686      12.59858375
Si       2.17661659       1.07439398       2.94909250
Si       2.17953180       1.61263305       4.61086545
Si       2.17953180       3.67916779      10.93681080
Si       2.29888220       1.57150644      10.72293063
Si       2.29888220       3.72029440       4.82474562
Si       4.28257562       2.99811568      14.51552936
Si       4.28257562       2.29368516       1.03214689
Si       0.19292317       4.93958558       6.74169124
Si       0.19292317       0.35221526       8.80598501
20
Lattice="4.39404358662857 -2.797604772254141e-16 -5.283175475333309e-16 3.1600339794053783e-16 5.324068324559576 3.191451743538228e-17 2.6843693390848254e-16 1.0782755595016638e-16 15.662535434755245" Properties=species:S:1:pos:R:3 unique_starting_index=4 config_type=initial n_minim_iter=17 pbc="T T T"
Si       2.58700969       2.89956595       9.66798306
Si       2.58700969       2.42450238       5.99455237
Si       1.80430989       2.08102422       8.50754933
Si       1.80430989       3.24304410       7.15498610
Si       1.80703389       0.23753178      13.82582009
Si       1.80703389       5.08653654       1.83671534
Si       2.58973369       4.74305839      14.98625382
Si       2.58973369       0.58100994       0.67628161
Si       2.25455797       4.28444281       3.18409082
Si       2.25455797       1.03962551      12.47844461
Si       2.13704938       4.24271840      12.69458104
Si       2.13704938       1.08134992       2.96795439
Si       2.13948561       1.62240865       4.64717689
Si       2.13948561       3.70165967      11.01535854
Si       2.25699421       1.58068424      10.79922211
Si       2.25699421       3.74338408       4.86331332
Si       4.20489060       3.01650673      14.62123337
Si       4.20489060       2.30756159       1.04130206
Si       0.18915299       4.96959575       6.78996566
Si       0.18915299       0.35447257       8.87256978
20
Lattice="4.381633491642623 -2.8229898994491883e-16 -5.810363058348278e-16 3.1145221521084305e-16 5.303828588327063 8.063330528051966e-16 1.1556105106156813e-16 2.304961947238244e-15 15.636095129353698" Properties=species:S:1:pos:R:3 unique_starting_index=4 config_type=initial n_minim_iter=18 pbc="T T T"
Si       2.57967519       2.88794791       9.65223417
Si       2.57967519       2.41588068       5.98386096
Si       1.79920480       2.07355407       8.49253306
Si       1.79920480       3.23027452       7.14356207
Si       1.80195830       0.23603361      13.80190852
Si       1.80195830       5.06779498       1.83418660
Si       2.58242869       4.72546836      14.96160963
Si       2.58242869       0.57836023       0.67448550
Si       2.24823507       4.26825189       3.17830618
Si       2.24823507       1.03557670      12.45778895
Si       2.13089067       4.22740858      12.67434321
Si       2.13089067       1.07642001       2.96175192
Si       2.13339842       1.61633760       4.63974138
Si       2.13339842       3.68749099      10.99635375
Si       2.25074282       1.57549428      10.77979949
Si       2.25074282       3.72833431       4.85629564
Si       4.19305372       3.00503918      14.59637183
Si       4.19305372       2.29878940       1.03972330
Si       0.18857977       4.95070370       6.77832427
Si       0.18857977       0.35312489       8.85777086
20
Lattice="4.373985077523313 -2.846193884592944e-16 -6.038666782768621e-16 3.0908290423944866e-16 5.310033957204415 6.764982274830253e-16 5.3403026384197517e-17 1.935067334102193e-15 15.661067828728086" Properties=species:S:1:pos:R:3 unique_starting_index=4 config_type=initial n_minim_iter=19 pbc="T T T"
Si       2.57523793       2.89143902       9.66754763
Si       2.57523793       2.41859493       5.99352020
Si       1.79606239       2.07589842       8.50614944
Si       1.79606239       3.23413554       7.15491839
Si       1.79874714       0.23642205      13.82405411
Si       1.79874714       5.07361191       1.83701372
Si       2.57792269       4.73091540      14.98545230
Si       2.57792269       0.57911856       0.67561553
Si       2.24434163       4.27326322       3.18318143
Si       2.24434163       1.03677074      12.47788640
Si       2.12717476       4.23234463      12.69484978
Si       2.12717476       1.07768932       2.96621805
Si       2.12964345       1.61824624       4.64735248
Si       2.12964345       3.69178772      11.01371535
Si       2.24681031       1.57732766      10.79675196
Si       2.24681031       3.73270630       4.86431587
Si       4.18576146       3.00855686      14.61954998
Si       4.18576146       2.30147710       1.04151785
Si       0.18822361       4.95649408       6.78901606
Si       0.18822361       0.35353988       8.87205177
20
Lattice="1.7783393688880174 -1.5725809566906443e-16 -1.999842997741641e-15 4.736723298667708e-16 8.215668864841215 2.72477865395415e-15 3.438912255483756e-16 5.904205406497829e-15 53.69120680085628" Properties=species:S:1:pos:R:3 unique_starting_index=4 config_type=initial n_minim_iter=20 pbc="T T T"
Si       1.06074110       4.56117957      32.97882349
Si       1.06074110       3.65448929      20.71238331
Si       0.72964828       3.26737520      28.91155012
Si       0.72964828       4.94829367      24.77965668
Si       0.71759827       0.45334514      47.55798671
Si       0.71759827       7.76232372       6.13322009
Si       1.04869109       7.37520963      51.62526008
Si       1.04869109       0.84045924       2.06594672
Si       0.91873626       6.68330514      10.17120999
Si       0.91873626       1.53236372      43.51999681
Si       0.86551145       6.59959926      44.37170614
Si       0.86551145       1.61606960       9.31950066
Si       0.85960311       2.57547071      16.67439341
Si       0.85960311       5.64019815      37.01681339
Si       0.91282792       2.49176483      36.16510406
Si       0.91282792       5.72390403      17.52610274
Si       1.70751378       4.65391715      49.89723194
Si       1.70751378       3.56175171       3.79397486
Si       0.07082559       7.66958614      23.05162854
Si       0.07082559       0.54608272      30.63957826
