8
Lattice="113.8873161690394 0.0 0.0 0.0 5.611375934733317 -3.414696449158111e-16 0.0 9.429106269750821e-15 154.94864857216743" Properties=species:S:1:pos:R:3 unique_starting_index=2 config_type=initial n_minim_iter=1 energy=-1268.35974568 free_energy=-1268.35974568 pbc="T T T"
Si      61.71881273       1.88021757     134.74349295
Si      52.16850344       1.88021757      20.20515563
Si      97.21362136       3.73181544      71.25500532
Si      16.67369481       3.73181544      83.69364325
Si     109.11216152       3.73115837      57.26916866
Si       4.77515465       3.73115837      97.67947991
Si      73.61735289       1.87956049     148.72932961
Si      40.26996328       1.87956049       6.21931897
