2
Lattice="2.7152755505310515 -8.610725737088986e-16 5.047884034312066e-41 -1.3576377752655253 2.3514976050346683 2.345647094880638e-25 -1.9571702887818127e-40 -4.506263857095881e-25 4.517503374971445" Properties=species:S:1:pos:R:3 n_minim_iter=1 energy=-3187.1405161323296 free_energy=-3187.1405161323296 pbc="T T T"
Ti       0.00000000       0.00000000       0.00000000
Ti       0.00000000       1.56766507       2.25875169
