2
Lattice="2.6325338012692323 -8.165118485063333e-16 4.1140704594210034e-41 -1.3162669006346155 2.2798411482203704 2.2741689188467657e-25 -1.9893101600387013e-40 -4.2613185531060155e-25 4.271947128699894" Properties=species:S:1:pos:R:3 n_minim_iter=1 energy=-3186.66797653965 free_energy=-3186.66797653965 pbc="T T T"
Ti       0.00000000       0.00000000       0.00000000
Ti       0.00000000       1.51989410       2.13597356
2
Lattice="2.6354123270772423 -8.165918373949891e-16 3.8339393245950763e-41 -1.3177061635386205 2.282334024695557 2.276655593062124e-25 -2.030822833457532e-40 -4.252014797203015e-25 4.262620167380143" Properties=species:S:1:pos:R:3 n_minim_iter=2 stress="-0.3753004818735546 -2.8935550856809415e-16 -1.8535505093512456e-18 -2.8935550856809415e-16 -0.37530048187355214 -8.464389629088538e-18 -1.8535505093512456e-18 -8.464389629088538e-18 -0.3753078696423043" pbc="T T T"
Ti      -0.00000000       0.00000000       0.00000000
Ti       0.00000000       1.52155602       2.13131008
