2
Lattice="4.390310507756827 -2.4707435531140223e-18 -8.420943945070548e-17 -2.470743553114213e-18 4.390310507756827 2.502208789783786e-16 2.1951552538784136 2.1951552538784136 1.1939399260947126" Properties=species:S:1:pos:R:3 cutoff=-1.0 nneightol=1.2 n_minim_iter=1 energy=-324.6454747919206 free_energy=-324.6454747919206 pbc="T T T"
Si      -0.00000000      -1.09757763      -0.29848498
Si      -0.00000000       1.09757763       0.29848498
2
Lattice="4.404899250295302 1.6972131849691894e-17 -2.403642641969823e-16 1.6972131849691447e-17 4.404899250295305 4.690965775636185e-16 2.202449625147651 2.2024496251476524 1.1860445180878205" Properties=species:S:1:pos:R:3 cutoff=-1.0 nneightol=1.2 n_minim_iter=2 stress="-0.3466360488724332 2.0700704903317035e-16 -4.789714911278558e-16 2.0700704903317035e-16 -0.3466360488724298 -3.1930506730392227e-16 -4.789714911278558e-16 -3.1930506730392227e-16 -0.3365867214807507" pbc="T T T"
Si      -0.00000000      -1.10122481      -0.29651113
Si      -0.00000000       1.10122481       0.29651113
