2
Lattice="4.556257350087897 1.861967665560958e-19 6.770723011688837e-17 1.8619676655526726e-19 4.556257350087897 -2.8966877770472533e-16 2.2781286750439484 2.2781286750439484 1.25612809742748" Properties=species:S:1:pos:R:3 cutoff=-1.0 nneightol=1.2 n_minim_iter=1 energy=-325.3948993497328 free_energy=-325.3948993497328 pbc="T T T"
Si      -0.00000000      -1.13906434      -0.31403202
Si      -0.00000000       1.13906434       0.31403202
2
Lattice="4.579971194016269 -1.0275834962660782e-17 -2.3483282339870367e-16 -1.0275834962661339e-17 4.57997119401627 3.2771074939330243e-16 2.2899855970081346 2.289985597008135 1.2431539941897443" Properties=species:S:1:pos:R:3 cutoff=-1.0 nneightol=1.2 n_minim_iter=2 stress="-0.15561082569776732 -8.706327044790734e-17 -3.201498499560265e-16 -8.706327044790734e-17 -0.15561082569776494 6.96902688672947e-16 -3.201498499560265e-16 6.96902688672947e-16 -0.1556720523063887" pbc="T T T"
Si      -0.00000000      -1.14499280      -0.31078850
Si      -0.00000000       1.14499280       0.31078850
