2
Lattice="4.888756098375723 1.99784715404893e-19 7.264825243720722e-17 1.9978471540404588e-19 4.888756098375723 -3.108077298324031e-16 2.4443780491878613 2.4443780491878613 1.347795663149102" Properties=species:S:1:pos:R:3 cutoff=-1.0 nneightol=1.2 n_minim_iter=1 energy=-325.692164910092 free_energy=-325.692164910092 pbc="T T T"
Si      -0.00000000      -1.22218902      -0.33694892
Si      -0.00000000       1.22218903       0.33694892
