63
Lattice="10.940925041754717 0.0 0.0 0.0 10.940925041754717 0.0 0.0 0.0 10.940925041754717" Properties=species:S:1:pos:R:3:forces:R:3 cutoff=-1.0 nneightol=1.2 vacancies=0 relax_radial_0=0.13 relax_symm_break_0=0.01 bulk_struct_test=bulk_Si_diamond supercell_a1_in_bulk_lattice_coords="2 2 -2" n_minim_iter=0 pbc="T T T"
Si       2.71291173       2.71265293      -0.01436519      -0.00373636      -0.00354857       0.00088015
Si       2.71268177      -0.01432861       2.71217397      -0.00265351       0.00074089      -0.00234069
Si      -0.01431044       2.71221527       2.71196661       0.00076535      -0.00153860      -0.00141701
Si       1.30746801       1.30717080       1.30685811      -0.00121948      -0.00204293      -0.00296658
Si       4.10111167       4.10089897       1.36254761      -0.00025169      -0.00111372      -0.00330432
Si       4.10074583       1.36265436       4.10030570       0.00050871      -0.00234635      -0.00113266
Si       1.36277054       4.10016452       4.09993826      -0.00149211       0.00044039      -0.00033848
Si       0.00022861       0.00011460       5.47047812       0.00132229       0.00064664      -0.00007184
Si       2.74103093       2.74079838       5.46449893      -0.00068670      -0.00099183       0.00129698
Si       2.71212803       0.01508850       8.22932118      -0.00273098      -0.00075631       0.00228790
Si       0.01580922       2.71109308       8.23009689      -0.00073158      -0.00154307       0.00128524
Si       1.37830712       1.37775846       6.82831329      -0.00170037      -0.00095496       0.00055079
Si       4.10375100       4.10332721       6.83802615       0.00039932      -0.00005041       0.00050027
Si       4.11279760       1.37838863       9.56308913       0.00186792      -0.00269790       0.00197954
Si       1.37861687       4.11270631       9.56340888      -0.00253565       0.00069327       0.00107525
Si       0.00022853       5.47042002       0.00000915       0.00132352      -0.00006404       0.00002808
Si       2.71189711       8.22980151       0.01505735      -0.00170448       0.00111090      -0.00069125
Si       2.74124840       5.46470298       2.74078237      -0.00087156       0.00124742      -0.00145291
Si       0.01651122       8.23134363       2.70984548      -0.00102005      -0.00073852       0.00045301
Si       1.37852312       6.82818937       1.37743548      -0.00220432       0.00255115      -0.00087174
Si       4.11300202       9.56308562       1.37839119       0.00092588       0.00280758      -0.00346494
Si       4.10408036       6.83810870       4.10324217       0.00005887       0.00125341      -0.00079510
Si       1.37883048       9.56373174       4.11282659      -0.00299778       0.00101659      -0.00128612
Si      -0.00017716       5.47171033       5.47045921       0.00343871      -0.00167404       0.00002192
Si       2.74109961       8.20051864       5.47681356      -0.00060135       0.00152231      -0.00154690
Si       2.74088319       5.47702086       8.20050419      -0.00041856      -0.00158750       0.00105534
Si      -0.01504758       8.23020012       8.22995145       0.00097161      -0.00054697      -0.00040420
Si       1.36245468       6.84237901       6.84215275      -0.00141198      -0.00114734      -0.00192656
Si       4.10030431       9.57880971       6.84103757       0.00123526       0.00402023       0.00052480
Si       4.09993497       6.84163650       9.57870511       0.00203039       0.00050880       0.00306348
Si       1.30625864       9.63556580       9.63524940       0.00097167       0.00134049       0.00049854
Si       5.47037898       0.00011444       0.00000906      -0.00016316       0.00064962       0.00002758
Si       8.23104346       2.71065366       0.01577790      -0.00091259       0.00024228      -0.00090846
Si       8.23180862       0.01651086       2.70963773      -0.00177486      -0.00123715       0.00122411
Si       5.46489435       2.74124588       2.74101100       0.00110093      -0.00139190      -0.00166396
Si       6.82804557       1.37820644       1.37766638       0.00461952      -0.00202498      -0.00142272
Si       9.56340521       4.11313370       1.37861643       0.00268839      -0.00107782      -0.00390222
Si       9.56373151       1.37882768       4.11304985       0.00179567      -0.00360454      -0.00211838
Si       6.83818851       4.10399526       4.10358004       0.00207792      -0.00075137      -0.00114992
Si       5.47295535      -0.00008892       5.47045917      -0.00333432       0.00171175       0.00002230
Si       8.20066076       2.74095671       5.47720688       0.00176746      -0.00085124      -0.00172509
Si       8.23123385      -0.01578627       8.23072720      -0.00165372       0.00114670      -0.00124779
Si       5.47761544       2.74051204       8.20064372      -0.00187935      -0.00044982       0.00077523
Si       6.84339865       1.36203676       6.84295564      -0.00180552      -0.00227126      -0.00343822
Si       9.57922164       4.09929790       6.84183146       0.00489046       0.00178526      -0.00089116
Si       9.63706598       1.30476153       9.63644660      -0.00034230       0.00245789      -0.00178617
Si       6.84302515       4.09855039       9.57900690      -0.00094827       0.00347502       0.00307477
Si       5.47295452       5.47170872       0.00000703      -0.00333179      -0.00167054       0.00003056
Si       8.23199849       8.23174137      -0.01652489      -0.00247522      -0.00221224       0.00152186
Si       8.20078998       5.47779142       2.74059566       0.00149541      -0.00197930      -0.00086824
Si       5.47799245       8.20078728       2.74036781      -0.00209133       0.00096836      -0.00064547
Si       6.84418558       6.84396869       1.36164524      -0.00322221      -0.00407157      -0.00331459
Si       9.63825253       9.63795268       1.30325392      -0.00278822      -0.00342257       0.00405504
Si       9.57950717       6.84321522       4.09791658       0.00498909      -0.00229994       0.00318681
Si       6.84380958       9.57939675       4.09754011      -0.00233827       0.00412499       0.00407500
Si       5.47058789       5.47052348       5.47046663      -0.00150345      -0.00072348      -0.00008259
Si       8.20055390       8.20032210       5.46332067       0.00173021       0.00143017       0.00183549
Si       8.20042531       5.46390233       8.19995976       0.00199220       0.00157009       0.00141298
Si       5.46448719       8.20005415       8.19981929       0.00124433       0.00195454       0.00168186
Si       6.83784428       6.83742580       6.83701157       0.00244412       0.00198050       0.00158283
Si       9.56316729       9.56262167       6.82764419       0.00317099       0.00373824       0.00310202
Si       9.56349242       6.82772425       9.56240859       0.00230820       0.00416270       0.00342780
Si       6.82780369       9.56326143       9.56272227       0.00539874       0.00208456       0.00263875
