65
Lattice="10.98424045249713 0.0 0.0 0.0 10.98424045249713 0.0 0.0 0.0 10.98424045249713" Properties=species:S:1:pos:R:3:forces:R:3 cutoff=-1.0 nneightol=1.2 Zs=14 interstitial_position="mean 4 5 6 7" bulk_struct_test=bulk_Si_diamond supercell_a1_in_bulk_lattice_coords="2 2 -2" n_minim_iter=0 pbc="T T T"
Si      -0.06081527      -0.06081527      -0.06081527       0.00126787       0.00126787       0.00126787
Si       2.74606011       2.74606011      -0.04203110      -0.00000000      -0.00000000      -0.00215890
Si       2.74606011      -0.04203110       2.74606011      -0.00000000      -0.00215890      -0.00000000
Si      -0.04203110       2.74606011       2.74606011      -0.00215890      -0.00000000      -0.00000000
Si       1.31060262       1.31060262       1.31060262       0.00072868       0.00072868       0.00072868
Si       4.18151760       4.18151760       1.31060262      -0.00072867      -0.00072867       0.00072868
Si       4.18151760       1.31060262       4.18151760      -0.00072867       0.00072868      -0.00072867
Si       1.31060262       4.18151760       4.18151760       0.00072868      -0.00072867      -0.00072867
Si      -0.00802033      -0.00802033       5.50014055       0.00102966       0.00102966      -0.00102966
Si       2.74606011       2.74606011       5.53415133      -0.00000000      -0.00000000       0.00215890
Si       2.74606011      -0.00104794       8.23818034      -0.00000000       0.00640602      -0.00000000
Si      -0.00104794       2.74606011       8.23818034       0.00640602      -0.00000000      -0.00000000
Si       1.35863524       1.35863524       6.87704608       0.00200581       0.00200581      -0.00373792
Si       4.13348498       4.13348498       6.87704608      -0.00200581      -0.00200581      -0.00373792
Si       4.13348498       1.35863524       9.59931460      -0.00200581       0.00200581       0.00373792
Si       1.35863524       4.13348498       9.59931460       0.00200581      -0.00200581       0.00373792
Si      -0.00802033       5.50014055      -0.00802033       0.00102966      -0.00102966       0.00102966
Si       2.74606011       8.23818034      -0.00104794      -0.00000000      -0.00000000       0.00640602
Si       2.74606011       5.53415133       2.74606011      -0.00000000       0.00215890      -0.00000000
Si      -0.00104794       8.23818034       2.74606011       0.00640602      -0.00000000      -0.00000000
Si       1.35863524       6.87704608       1.35863524       0.00200581      -0.00373792       0.00200581
Si       4.13348498       9.59931460       1.35863524      -0.00200581       0.00373792       0.00200581
Si       4.13348498       6.87704608       4.13348498      -0.00200581      -0.00373792      -0.00200581
Si       1.35863524       9.59931460       4.13348498       0.00200581       0.00373792      -0.00200581
Si      -0.06081527       5.55293549       5.55293549       0.00126787      -0.00126787      -0.00126787
Si       2.74606011       8.23818034       5.49316816      -0.00000000      -0.00000000      -0.00640602
Si       2.74606011       5.49316816       8.23818034      -0.00000000      -0.00640602      -0.00000000
Si       0.00106875       8.23818034       8.23818034       0.00479970      -0.00000000      -0.00000000
Si       1.38106764       6.87741904       6.87741904       0.00238785      -0.00009809      -0.00009809
Si       4.11105258       9.59894164       6.87741904      -0.00238785       0.00009809      -0.00009809
Si       4.11105258       6.87741904       9.59894164      -0.00238785      -0.00009809       0.00009809
Si       1.38106764       9.59894164       9.59894164       0.00238785       0.00009809       0.00009809
Si       5.50014055      -0.00802033      -0.00802033      -0.00102966       0.00102966       0.00102966
Si       8.23818034       2.74606011      -0.00104794      -0.00000000      -0.00000000       0.00640602
Si       8.23818034      -0.00104794       2.74606011      -0.00000000       0.00640602      -0.00000000
Si       5.53415133       2.74606011       2.74606011       0.00215890      -0.00000000      -0.00000000
Si       6.87704608       1.35863524       1.35863524      -0.00373792       0.00200581       0.00200581
Si       9.59931460       4.13348498       1.35863524       0.00373792      -0.00200581       0.00200581
Si       9.59931460       1.35863524       4.13348498       0.00373792       0.00200581      -0.00200581
Si       6.87704608       4.13348498       4.13348498      -0.00373792      -0.00200581      -0.00200581
Si       5.55293549      -0.06081527       5.55293549      -0.00126787       0.00126787      -0.00126787
Si       8.23818034       2.74606011       5.49316816      -0.00000000      -0.00000000      -0.00640602
Si       8.23818034       0.00106875       8.23818034      -0.00000000       0.00479970      -0.00000000
Si       5.49316816       2.74606011       8.23818034      -0.00640602      -0.00000000      -0.00000000
Si       6.87741904       1.38106764       6.87741904      -0.00009809       0.00238785      -0.00009809
Si       9.59894164       4.11105258       6.87741904       0.00009809      -0.00238785      -0.00009809
Si       9.59894164       1.38106764       9.59894164       0.00009809       0.00238785       0.00009809
Si       6.87741904       4.11105258       9.59894164      -0.00009809      -0.00238785       0.00009809
Si       5.55293549       5.55293549      -0.06081527      -0.00126787      -0.00126787       0.00126787
Si       8.23818034       8.23818034       0.00106875      -0.00000000      -0.00000000       0.00479970
Si       8.23818034       5.49316816       2.74606011      -0.00000000      -0.00640602      -0.00000000
Si       5.49316816       8.23818034       2.74606011      -0.00640602      -0.00000000      -0.00000000
Si       6.87741904       6.87741904       1.38106764      -0.00009809      -0.00009809       0.00238785
Si       9.59894164       9.59894164       1.38106764       0.00009809       0.00009809       0.00238785
Si       9.59894164       6.87741904       4.11105258       0.00009809      -0.00009809      -0.00238785
Si       6.87741904       9.59894164       4.11105258      -0.00009809       0.00009809      -0.00238785
Si       5.50014055       5.50014055       5.50014055      -0.00102966      -0.00102966      -0.00102966
Si       8.23818034       8.23818034       5.49105147      -0.00000000      -0.00000000      -0.00479970
Si       8.23818034       5.49105147       8.23818034      -0.00000000      -0.00479970      -0.00000000
Si       5.49105147       8.23818034       8.23818034      -0.00479970      -0.00000000      -0.00000000
Si       6.86865657       6.86865657       6.86865657      -0.00466272      -0.00466272      -0.00466272
Si       9.60770410       9.60770410       6.86865657       0.00466272       0.00466272      -0.00466272
Si       9.60770410       6.86865657       9.60770410       0.00466272      -0.00466272       0.00466272
Si       6.86865657       9.60770410       9.60770410      -0.00466272       0.00466272       0.00466272
Si       2.74606011       2.74606011       2.74606011       0.00000000       0.00000000       0.00000000
