16
Lattice="2.745688671424546 -2.745688671424546 0.0 2.745688671424546 2.745688671424546 0.0 0.0 0.0 31.67101899113672" Properties=species:S:1:pos:R:3:travel:I:3:map_shift:I:3:n_neighb:I:1:orig_index:I:1:forces:R:3 cutoff=2.0 nneightol=1.2 supercell_a1_in_bulk_lattice_coords="1 0 -1" bulk_struct_test=bulk_Si_diamond n_minim_iter=0 pbc="T T T"
Si      -0.00000000      -0.00000000       0.00606762        0        0        0        0        0        0       29        1       0.00000000       0.00000000       0.00682513
Si       1.37284434       1.37284434       1.36677671        0        0        0       -1        0        0       29        2      -0.00000000      -0.00000000      -0.00682513
Si      -0.00000000       2.74568867       2.72636331        0        0        0       -1        0        0       29        3       0.00000000       0.00000000       0.00177356
Si      -1.37284434       1.37284434       4.08674419        1        0        0        0        0        0       29        4      -0.00000000       0.00000000       0.00007290
Si      -0.00000000      -0.00000000       5.44595783        1       -1        0        0        0        0       29        5       0.00000000      -0.00000000      -0.00019932
Si       1.37284434       1.37284434       6.80872011        1       -1        0        0        0        0       29        6       0.00000000      -0.00000000       0.00013744
Si       0.00000000       2.74568867       8.17476746        1       -1        0        0        0        0       29        7       0.00000000       0.00000000       0.00126151
Si      -1.37284434       1.37284434       9.54125057        2       -1        0        0        0        0       29        8       0.00000000      -0.00000000      -0.00116561
Si      -0.00000000      -0.00000000      10.87450395        2       -2        0        0        0        0       29        9      -0.00000000       0.00000000       0.00001736
Si       1.37284434       1.37284434      -9.50165962        2       -2        1        0        0        0       29       10       0.00000000      -0.00000000      -0.00001736
Si      -0.00000000       2.74568867      -8.16840624        2       -2        1        0        0        0       35       11      -0.00000000       0.00000000       0.00116561
Si      -1.37284434       1.37284434      -6.80192312        3       -2        1        0        0        0       35       12      -0.00000000      -0.00000000      -0.00126151
Si       0.00000000       0.00000000      -5.43587578        3       -3        1        0        0        0       35       13       0.00000000       0.00000000      -0.00013744
Si       1.37284434       1.37284434      -4.07311349        3       -3        1        0        0        0       35       14      -0.00000000      -0.00000000       0.00019932
Si      -0.00000000       2.74568867      -2.71389985        3       -2        1        0        0        0       29       97      -0.00000000      -0.00000000      -0.00007290
Si      -1.37284434       1.37284434      -1.35351897        4       -2        1        0        0        0       29       98       0.00000000       0.00000000      -0.00177356
