64
Lattice="10.940925041754717 0.0 0.0 0.0 10.940925041754717 0.0 0.0 0.0 10.940925041754717" Properties=species:S:1:pos:R:3:forces:R:3 cutoff=-1.0 nneightol=1.2 vacancies=0 relax_radial_0=0.13 relax_symm_break_0=0.01 bulk_struct_test=bulk_Si_diamond supercell_a1_in_bulk_lattice_coords="2 2 -2" n_minim_iter=0 pbc="T T T"
Si       0.00000000       0.00000000       0.00000000      -0.00000000      -0.00000000      -0.00000000
Si       2.73523126       2.73523126       0.00000000      -0.00000008      -0.00000008      -0.00000000
Si       2.73523126       0.00000000       2.73523126      -0.00000008      -0.00000000      -0.00000008
Si       0.00000000       2.73523126       2.73523126      -0.00000000      -0.00000008      -0.00000008
Si       1.36761563       1.36761563       1.36761563      -0.00000000      -0.00000000      -0.00000000
Si       4.10284688       4.10284688       1.36761563       0.00000008       0.00000008      -0.00000000
Si       4.10284688       1.36761563       4.10284688       0.00000008      -0.00000000       0.00000008
Si       1.36761563       4.10284688       4.10284688      -0.00000000       0.00000008       0.00000008
Si       0.00000000       0.00000000       5.47046252      -0.00000000      -0.00000000       0.00000000
Si       2.73523126       2.73523126       5.47046252      -0.00000008      -0.00000008       0.00000000
Si       2.73523126       0.00000000       8.20569378      -0.00000008      -0.00000000      -0.00000000
Si       0.00000000       2.73523126       8.20569378      -0.00000000      -0.00000008      -0.00000000
Si       1.36761563       1.36761563       6.83807815      -0.00000000      -0.00000000       0.00000000
Si       4.10284688       4.10284688       6.83807815       0.00000008       0.00000008       0.00000000
Si       4.10284688       1.36761563       9.57330941       0.00000008      -0.00000000       0.00000000
Si       1.36761563       4.10284688       9.57330941      -0.00000000       0.00000008       0.00000000
Si       0.00000000       5.47046252       0.00000000      -0.00000000       0.00000000      -0.00000000
Si       2.73523126       8.20569378       0.00000000      -0.00000008      -0.00000000      -0.00000000
Si       2.73523126       5.47046252       2.73523126      -0.00000008       0.00000000      -0.00000008
Si       0.00000000       8.20569378       2.73523126      -0.00000000      -0.00000000      -0.00000008
Si       1.36761563       6.83807815       1.36761563      -0.00000000       0.00000000      -0.00000000
Si       4.10284688       9.57330941       1.36761563       0.00000008       0.00000000      -0.00000000
Si       4.10284688       6.83807815       4.10284688       0.00000008       0.00000000       0.00000008
Si       1.36761563       9.57330941       4.10284688      -0.00000000       0.00000000       0.00000008
Si       0.00000000       5.47046252       5.47046252      -0.00000000       0.00000000       0.00000000
Si       2.73523126       8.20569378       5.47046252      -0.00000008      -0.00000000       0.00000000
Si       2.73523126       5.47046252       8.20569378      -0.00000008       0.00000000      -0.00000000
Si       0.00000000       8.20569378       8.20569378      -0.00000000      -0.00000000      -0.00000000
Si       1.36761563       6.83807815       6.83807815      -0.00000000       0.00000000       0.00000000
Si       4.10284688       9.57330941       6.83807815       0.00000008       0.00000000       0.00000000
Si       4.10284688       6.83807815       9.57330941       0.00000008       0.00000000       0.00000000
Si       1.36761563       9.57330941       9.57330941      -0.00000000       0.00000000       0.00000000
Si       5.47046252       0.00000000       0.00000000       0.00000000      -0.00000000      -0.00000000
Si       8.20569378       2.73523126       0.00000000      -0.00000000      -0.00000008      -0.00000000
Si       8.20569378       0.00000000       2.73523126      -0.00000000      -0.00000000      -0.00000008
Si       5.47046252       2.73523126       2.73523126       0.00000000      -0.00000008      -0.00000008
Si       6.83807815       1.36761563       1.36761563       0.00000000      -0.00000000      -0.00000000
Si       9.57330941       4.10284688       1.36761563       0.00000000       0.00000008      -0.00000000
Si       9.57330941       1.36761563       4.10284688       0.00000000      -0.00000000       0.00000008
Si       6.83807815       4.10284688       4.10284688       0.00000000       0.00000008       0.00000008
Si       5.47046252       0.00000000       5.47046252       0.00000000      -0.00000000       0.00000000
Si       8.20569378       2.73523126       5.47046252      -0.00000000      -0.00000008       0.00000000
Si       8.20569378       0.00000000       8.20569378      -0.00000000      -0.00000000      -0.00000000
Si       5.47046252       2.73523126       8.20569378       0.00000000      -0.00000008      -0.00000000
Si       6.83807815       1.36761563       6.83807815       0.00000000      -0.00000000       0.00000000
Si       9.57330941       4.10284688       6.83807815       0.00000000       0.00000008       0.00000000
Si       9.57330941       1.36761563       9.57330941       0.00000000      -0.00000000       0.00000000
Si       6.83807815       4.10284688       9.57330941       0.00000000       0.00000008       0.00000000
Si       5.47046252       5.47046252       0.00000000       0.00000000       0.00000000      -0.00000000
Si       8.20569378       8.20569378       0.00000000      -0.00000000      -0.00000000      -0.00000000
Si       8.20569378       5.47046252       2.73523126      -0.00000000       0.00000000      -0.00000008
Si       5.47046252       8.20569378       2.73523126       0.00000000      -0.00000000      -0.00000008
Si       6.83807815       6.83807815       1.36761563       0.00000000       0.00000000      -0.00000000
Si       9.57330941       9.57330941       1.36761563       0.00000000       0.00000000      -0.00000000
Si       9.57330941       6.83807815       4.10284688       0.00000000       0.00000000       0.00000008
Si       6.83807815       9.57330941       4.10284688       0.00000000       0.00000000       0.00000008
Si       5.47046252       5.47046252       5.47046252       0.00000000       0.00000000       0.00000000
Si       8.20569378       8.20569378       5.47046252      -0.00000000      -0.00000000       0.00000000
Si       8.20569378       5.47046252       8.20569378      -0.00000000       0.00000000      -0.00000000
Si       5.47046252       8.20569378       8.20569378       0.00000000      -0.00000000      -0.00000000
Si       6.83807815       6.83807815       6.83807815       0.00000000       0.00000000       0.00000000
Si       9.57330941       9.57330941       6.83807815       0.00000000       0.00000000       0.00000000
Si       9.57330941       6.83807815       9.57330941       0.00000000       0.00000000       0.00000000
Si       6.83807815       9.57330941       9.57330941       0.00000000       0.00000000       0.00000000
