2
Lattice="2.548034565195522 3.5886591203601373e-65 1.6968770348015298e-50 -3.6510286056431676e-65 2.548034565195522 9.36541664807207e-17 -2.588452867582803e-50 -1.4286208771542042e-16 3.886826942502566" Properties=species:S:1:pos:R:3:tags:I:1 spacegroup="P 1" unit_cell=conventional n_minim_iter=1 energy=-1703.80573571776 free_energy=-1703.80573571776 pbc="T T T"
Ti       1.27401728       1.27401728       1.94341348        0
Al       0.00000000      -0.00000000       0.00000000        1
