2
Lattice="2.522032398167952 3.552037594448672e-65 1.6795607547608898e-50 -3.613770612002455e-65 2.522032398167952 9.269844503450373e-17 -2.562038240118472e-50 -1.414042095855771e-16 3.8471626754840953" Properties=species:S:1:pos:R:3:tags:I:1 spacegroup="P 1" unit_cell=conventional n_minim_iter=1 energy=-1703.6162162884975 free_energy=-1703.6162162884975 pbc="T T T"
Ti       1.26101620       1.26101620       1.92358134        0
Al       0.00000000      -0.00000000       0.00000000        1
