2
Lattice="2.6994141011703237 0.0 0.0 0.0 2.6994141011703237 0.0 0.0 0.0 3.882885592443142" Properties=species:S:1:pos:R:3:tags:I:1 spacegroup="P 1" unit_cell=conventional n_minim_iter=1 energy=-1704.2152150876893 free_energy=-1704.2152150876893 pbc="T T T"
Ti       1.34970705       1.34970705       1.94144280        0
Al       0.00000000       0.00000000       0.00000000        1
